MODEL 1
REMARK VINA RESULT:      -5.0      0.000      0.000
REMARK  Name = 
REMARK  16 active torsions:
REMARK  status: ('A' for Active; 'I' for Inactive)
REMARK    1  A    between atoms: O_1  and  C_2
REMARK    2  A    between atoms: C_2  and  C_3
REMARK    3  A    between atoms: C_3  and  C_4
REMARK    4  A    between atoms: C_3  and  C_18
REMARK    5  A    between atoms: C_4  and  O_5
REMARK    6  A    between atoms: O_5  and  C_6
REMARK    7  A    between atoms: C_6  and  C_7
REMARK    8  A    between atoms: C_7  and  O_8
REMARK    9  A    between atoms: C_7  and  C_10
REMARK   10  A    between atoms: O_8  and  O_9
REMARK   11  A    between atoms: C_12  and  C_13
REMARK   12  A    between atoms: C_13  and  O_14
REMARK   13  A    between atoms: C_13  and  O_15
REMARK   14  A    between atoms: C_18  and  O_19
REMARK   15  A    between atoms: C_18  and  C_20
REMARK   16  A    between atoms: C_20  and  O_21
REMARK                            x       y       z     vdW  Elec       q    Type
REMARK                         _______ _______ _______ _____ _____    ______ ____
ROOT
ATOM      1  C   UNL     1     112.055  72.676  81.540  0.00  0.00    +0.000 C 
ENDROOT
BRANCH   1   2
ATOM      2  C   UNL     1     112.218  73.323  82.919  0.00  0.00    +0.000 C 
ATOM      3  C   UNL     1     111.961  74.831  82.901  0.00  0.00    +0.000 C 
ATOM      4  C   UNL     1     112.760  75.315  84.087  0.00  0.00    +0.000 C 
ATOM      5  C   UNL     1     113.982  74.417  84.007  0.00  0.00    +0.000 C 
ATOM      6  O   UNL     1     113.555  73.168  83.430  0.00  0.00    +0.000 OA
BRANCH   4   7
ATOM      7  C   UNL     1     112.019  75.130  85.407  0.00  0.00    +0.000 C 
BRANCH   7   8
ATOM      8  O   UNL     1     110.892  75.980  85.459  0.00  0.00    +0.000 OA
ATOM      9  H   UNL     1     110.669  76.226  84.546  0.00  0.00    +0.000 HD
ENDBRANCH   7   8
BRANCH   7  10
ATOM     10  O   UNL     1     112.889  75.481  86.466  0.00  0.00    +0.000 OA
ATOM     11  H   UNL     1     113.790  75.337  86.138  0.00  0.00    +0.000 HD
ENDBRANCH   7  10
ENDBRANCH   4   7
ENDBRANCH   1   2
BRANCH   1  12
ATOM     12  O   UNL     1     112.144  71.245  81.661  0.00  0.00    +0.000 OA
BRANCH  12  13
ATOM     13  O   UNL     1     113.560  70.912  81.631  0.00  0.00    +0.000 OA
ATOM     14  H   UNL     1     113.472  69.986  81.924  0.00  0.00    +0.000 HD
ENDBRANCH  12  13
ENDBRANCH   1  12
BRANCH   1  15
ATOM     15  C   UNL     1     113.149  73.127  80.557  0.00  0.00    +0.000 C 
BRANCH  15  16
ATOM     16  O   UNL     1     112.640  73.241  79.212  0.00  0.00    +0.000 OA
BRANCH  16  17
ATOM     17  C   UNL     1     113.078  72.179  78.358  0.00  0.00    +0.000 C 
BRANCH  17  18
ATOM     18  C   UNL     1     111.989  71.848  77.327  0.00  0.00    +0.000 C 
BRANCH  18  19
ATOM     19  C   UNL     1     112.029  72.760  76.081  0.00  0.00    +0.000 C 
BRANCH  19  20
ATOM     20  O   UNL     1     112.385  74.110  76.413  0.00  0.00    +0.000 OA
ATOM     21  H   UNL     1     111.565  74.647  76.339  0.00  0.00    +0.000 HD
ENDBRANCH  19  20
BRANCH  19  22
ATOM     22  C   UNL     1     112.995  72.272  74.996  0.00  0.00    +0.000 C 
BRANCH  22  23
ATOM     23  O   UNL     1     112.265  71.947  73.812  0.00  0.00    +0.000 OA
ATOM     24  H   UNL     1     112.435  72.681  73.188  0.00  0.00    +0.000 HD
ENDBRANCH  22  23
ENDBRANCH  19  22
ENDBRANCH  18  19
BRANCH  18  25
ATOM     25  C   UNL     1     110.603  71.906  77.972  0.00  0.00    +0.000 C 
BRANCH  25  26
ATOM     26  O   UNL     1     110.536  70.962  79.036  0.00  0.00    +0.000 OA
ATOM     27  H   UNL     1     110.329  71.464  79.845  0.00  0.00    +0.000 HD
ENDBRANCH  25  26
ENDBRANCH  18  25
ENDBRANCH  17  18
ENDBRANCH  16  17
ENDBRANCH  15  16
ENDBRANCH   1  15
TORSDOF 16
ENDMDL
MODEL 2
REMARK VINA RESULT:      -5.0      1.147      2.329
REMARK  Name = 
REMARK  16 active torsions:
REMARK  status: ('A' for Active; 'I' for Inactive)
REMARK    1  A    between atoms: O_1  and  C_2
REMARK    2  A    between atoms: C_2  and  C_3
REMARK    3  A    between atoms: C_3  and  C_4
REMARK    4  A    between atoms: C_3  and  C_18
REMARK    5  A    between atoms: C_4  and  O_5
REMARK    6  A    between atoms: O_5  and  C_6
REMARK    7  A    between atoms: C_6  and  C_7
REMARK    8  A    between atoms: C_7  and  O_8
REMARK    9  A    between atoms: C_7  and  C_10
REMARK   10  A    between atoms: O_8  and  O_9
REMARK   11  A    between atoms: C_12  and  C_13
REMARK   12  A    between atoms: C_13  and  O_14
REMARK   13  A    between atoms: C_13  and  O_15
REMARK   14  A    between atoms: C_18  and  O_19
REMARK   15  A    between atoms: C_18  and  C_20
REMARK   16  A    between atoms: C_20  and  O_21
REMARK                            x       y       z     vdW  Elec       q    Type
REMARK                         _______ _______ _______ _____ _____    ______ ____
ROOT
ATOM      1  C   UNL     1     111.895  72.560  81.331  0.00  0.00    +0.000 C 
ENDROOT
BRANCH   1   2
ATOM      2  C   UNL     1     111.814  73.382  82.621  0.00  0.00    +0.000 C 
ATOM      3  C   UNL     1     111.756  74.888  82.363  0.00  0.00    +0.000 C 
ATOM      4  C   UNL     1     112.312  75.464  83.643  0.00  0.00    +0.000 C 
ATOM      5  C   UNL     1     113.400  74.456  83.972  0.00  0.00    +0.000 C 
ATOM      6  O   UNL     1     112.967  73.181  83.459  0.00  0.00    +0.000 OA
BRANCH   4   7
ATOM      7  C   UNL     1     111.270  75.539  84.753  0.00  0.00    +0.000 C 
BRANCH   7   8
ATOM      8  O   UNL     1     110.531  76.739  84.652  0.00  0.00    +0.000 OA
ATOM      9  H   UNL     1     110.271  76.844  83.721  0.00  0.00    +0.000 HD
ENDBRANCH   7   8
BRANCH   7  10
ATOM     10  O   UNL     1     111.937  75.533  86.000  0.00  0.00    +0.000 OA
ATOM     11  H   UNL     1     112.827  75.883  85.836  0.00  0.00    +0.000 HD
ENDBRANCH   7  10
ENDBRANCH   4   7
ENDBRANCH   1   2
BRANCH   1  12
ATOM     12  O   UNL     1     112.166  71.183  81.647  0.00  0.00    +0.000 OA
BRANCH  12  13
ATOM     13  O   UNL     1     113.603  71.075  81.844  0.00  0.00    +0.000 OA
ATOM     14  H   UNL     1     113.786  70.498  81.079  0.00  0.00    +0.000 HD
ENDBRANCH  12  13
ENDBRANCH   1  12
BRANCH   1  15
ATOM     15  C   UNL     1     113.019  73.052  80.403  0.00  0.00    +0.000 C 
BRANCH  15  16
ATOM     16  O   UNL     1     113.176  72.191  79.256  0.00  0.00    +0.000 OA
BRANCH  16  17
ATOM     17  C   UNL     1     113.268  72.914  78.025  0.00  0.00    +0.000 C 
BRANCH  17  18
ATOM     18  C   UNL     1     111.864  73.293  77.530  0.00  0.00    +0.000 C 
BRANCH  18  19
ATOM     19  C   UNL     1     110.933  72.076  77.339  0.00  0.00    +0.000 C 
BRANCH  19  20
ATOM     20  O   UNL     1     111.666  70.847  77.239  0.00  0.00    +0.000 OA
ATOM     21  H   UNL     1     111.199  70.189  77.799  0.00  0.00    +0.000 HD
ENDBRANCH  19  20
BRANCH  19  22
ATOM     22  C   UNL     1     109.897  71.915  78.457  0.00  0.00    +0.000 C 
BRANCH  22  23
ATOM     23  O   UNL     1     109.451  73.202  78.889  0.00  0.00    +0.000 OA
ATOM     24  H   UNL     1     109.011  73.053  79.750  0.00  0.00    +0.000 HD
ENDBRANCH  22  23
ENDBRANCH  19  22
ENDBRANCH  18  19
BRANCH  18  25
ATOM     25  C   UNL     1     111.950  74.093  76.229  0.00  0.00    +0.000 C 
BRANCH  25  26
ATOM     26  O   UNL     1     111.978  73.195  75.123  0.00  0.00    +0.000 OA
ATOM     27  H   UNL     1     111.155  72.675  75.162  0.00  0.00    +0.000 HD
ENDBRANCH  25  26
ENDBRANCH  18  25
ENDBRANCH  17  18
ENDBRANCH  16  17
ENDBRANCH  15  16
ENDBRANCH   1  15
TORSDOF 16
ENDMDL
MODEL 3
REMARK VINA RESULT:      -5.0     28.190     31.093
REMARK  Name = 
REMARK  16 active torsions:
REMARK  status: ('A' for Active; 'I' for Inactive)
REMARK    1  A    between atoms: O_1  and  C_2
REMARK    2  A    between atoms: C_2  and  C_3
REMARK    3  A    between atoms: C_3  and  C_4
REMARK    4  A    between atoms: C_3  and  C_18
REMARK    5  A    between atoms: C_4  and  O_5
REMARK    6  A    between atoms: O_5  and  C_6
REMARK    7  A    between atoms: C_6  and  C_7
REMARK    8  A    between atoms: C_7  and  O_8
REMARK    9  A    between atoms: C_7  and  C_10
REMARK   10  A    between atoms: O_8  and  O_9
REMARK   11  A    between atoms: C_12  and  C_13
REMARK   12  A    between atoms: C_13  and  O_14
REMARK   13  A    between atoms: C_13  and  O_15
REMARK   14  A    between atoms: C_18  and  O_19
REMARK   15  A    between atoms: C_18  and  C_20
REMARK   16  A    between atoms: C_20  and  O_21
REMARK                            x       y       z     vdW  Elec       q    Type
REMARK                         _______ _______ _______ _____ _____    ______ ____
ROOT
ATOM      1  C   UNL     1     110.283  97.001  62.967  0.00  0.00    +0.000 C 
ENDROOT
BRANCH   1   2
ATOM      2  C   UNL     1     110.111  95.505  63.251  0.00  0.00    +0.000 C 
ATOM      3  C   UNL     1     110.852  94.621  62.247  0.00  0.00    +0.000 C 
ATOM      4  C   UNL     1     110.070  93.331  62.302  0.00  0.00    +0.000 C 
ATOM      5  C   UNL     1     108.652  93.852  62.456  0.00  0.00    +0.000 C 
ATOM      6  O   UNL     1     108.732  95.099  63.174  0.00  0.00    +0.000 OA
BRANCH   4   7
ATOM      7  C   UNL     1     110.471  92.453  63.483  0.00  0.00    +0.000 C 
BRANCH   7   8
ATOM      8  O   UNL     1     110.666  91.120  63.058  0.00  0.00    +0.000 OA
ATOM      9  H   UNL     1     109.888  90.609  63.337  0.00  0.00    +0.000 HD
ENDBRANCH   7   8
BRANCH   7  10
ATOM     10  O   UNL     1     109.424  92.468  64.433  0.00  0.00    +0.000 OA
ATOM     11  H   UNL     1     109.623  93.191  65.048  0.00  0.00    +0.000 HD
ENDBRANCH   7  10
ENDBRANCH   4   7
ENDBRANCH   1   2
BRANCH   1  12
ATOM     12  O   UNL     1     108.993  97.612  62.781  0.00  0.00    +0.000 OA
BRANCH  12  13
ATOM     13  O   UNL     1     108.515  97.187  61.475  0.00  0.00    +0.000 OA
ATOM     14  H   UNL     1     109.236  96.559  61.282  0.00  0.00    +0.000 HD
ENDBRANCH  12  13
ENDBRANCH   1  12
BRANCH   1  15
ATOM     15  C   UNL     1     111.104  97.255  61.691  0.00  0.00    +0.000 C 
BRANCH  15  16
ATOM     16  O   UNL     1     110.812  98.548  61.121  0.00  0.00    +0.000 OA
BRANCH  16  17
ATOM     17  C   UNL     1     111.544  99.609  61.742  0.00  0.00    +0.000 C 
BRANCH  17  18
ATOM     18  C   UNL     1     110.973 100.968  61.308  0.00  0.00    +0.000 C 
BRANCH  18  19
ATOM     19  C   UNL     1     109.840 101.476  62.226  0.00  0.00    +0.000 C 
BRANCH  19  20
ATOM     20  O   UNL     1     109.278 100.424  63.023  0.00  0.00    +0.000 OA
ATOM     21  H   UNL     1     109.947  99.704  63.057  0.00  0.00    +0.000 HD
ENDBRANCH  19  20
BRANCH  19  22
ATOM     22  C   UNL     1     110.276 102.601  63.172  0.00  0.00    +0.000 C 
BRANCH  22  23
ATOM     23  O   UNL     1     110.036 103.867  62.557  0.00  0.00    +0.000 OA
ATOM     24  H   UNL     1     110.921 104.256  62.401  0.00  0.00    +0.000 HD
ENDBRANCH  22  23
ENDBRANCH  19  22
ENDBRANCH  18  19
BRANCH  18  25
ATOM     25  C   UNL     1     110.483 100.908  59.860  0.00  0.00    +0.000 C 
BRANCH  25  26
ATOM     26  O   UNL     1     109.110 100.527  59.840  0.00  0.00    +0.000 OA
ATOM     27  H   UNL     1     109.051  99.718  59.300  0.00  0.00    +0.000 HD
ENDBRANCH  25  26
ENDBRANCH  18  25
ENDBRANCH  17  18
ENDBRANCH  16  17
ENDBRANCH  15  16
ENDBRANCH   1  15
TORSDOF 16
ENDMDL
MODEL 4
REMARK VINA RESULT:      -5.0      1.920      7.291
REMARK  Name = 
REMARK  16 active torsions:
REMARK  status: ('A' for Active; 'I' for Inactive)
REMARK    1  A    between atoms: O_1  and  C_2
REMARK    2  A    between atoms: C_2  and  C_3
REMARK    3  A    between atoms: C_3  and  C_4
REMARK    4  A    between atoms: C_3  and  C_18
REMARK    5  A    between atoms: C_4  and  O_5
REMARK    6  A    between atoms: O_5  and  C_6
REMARK    7  A    between atoms: C_6  and  C_7
REMARK    8  A    between atoms: C_7  and  O_8
REMARK    9  A    between atoms: C_7  and  C_10
REMARK   10  A    between atoms: O_8  and  O_9
REMARK   11  A    between atoms: C_12  and  C_13
REMARK   12  A    between atoms: C_13  and  O_14
REMARK   13  A    between atoms: C_13  and  O_15
REMARK   14  A    between atoms: C_18  and  O_19
REMARK   15  A    between atoms: C_18  and  C_20
REMARK   16  A    between atoms: C_20  and  O_21
REMARK                            x       y       z     vdW  Elec       q    Type
REMARK                         _______ _______ _______ _____ _____    ______ ____
ROOT
ATOM      1  C   UNL     1     112.223  72.635  80.024  0.00  0.00    +0.000 C 
ENDROOT
BRANCH   1   2
ATOM      2  C   UNL     1     112.152  72.745  78.497  0.00  0.00    +0.000 C 
ATOM      3  C   UNL     1     112.762  71.536  77.786  0.00  0.00    +0.000 C 
ATOM      4  C   UNL     1     113.159  72.107  76.446  0.00  0.00    +0.000 C 
ATOM      5  C   UNL     1     113.637  73.492  76.845  0.00  0.00    +0.000 C 
ATOM      6  O   UNL     1     112.879  73.886  78.006  0.00  0.00    +0.000 OA
BRANCH   4   7
ATOM      7  C   UNL     1     111.988  72.183  75.472  0.00  0.00    +0.000 C 
BRANCH   7   8
ATOM      8  O   UNL     1     112.358  71.644  74.219  0.00  0.00    +0.000 OA
ATOM      9  H   UNL     1     113.329  71.620  74.187  0.00  0.00    +0.000 HD
ENDBRANCH   7   8
BRANCH   7  10
ATOM     10  O   UNL     1     111.642  73.541  75.286  0.00  0.00    +0.000 OA
ATOM     11  H   UNL     1     110.955  73.557  74.602  0.00  0.00    +0.000 HD
ENDBRANCH   7  10
ENDBRANCH   4   7
ENDBRANCH   1   2
BRANCH   1  12
ATOM     12  O   UNL     1     111.900  71.293  80.430  0.00  0.00    +0.000 OA
BRANCH  12  13
ATOM     13  O   UNL     1     112.040  71.251  81.877  0.00  0.00    +0.000 OA
ATOM     14  H   UNL     1     111.240  70.724  82.060  0.00  0.00    +0.000 HD
ENDBRANCH  12  13
ENDBRANCH   1  12
BRANCH   1  15
ATOM     15  C   UNL     1     111.228  73.581  80.718  0.00  0.00    +0.000 C 
BRANCH  15  16
ATOM     16  O   UNL     1     111.843  74.285  81.816  0.00  0.00    +0.000 OA
BRANCH  16  17
ATOM     17  C   UNL     1     112.192  75.634  81.489  0.00  0.00    +0.000 C 
BRANCH  17  18
ATOM     18  C   UNL     1     112.277  76.482  82.766  0.00  0.00    +0.000 C 
BRANCH  18  19
ATOM     19  C   UNL     1     113.581  76.258  83.563  0.00  0.00    +0.000 C 
BRANCH  19  20
ATOM     20  O   UNL     1     113.596  74.985  84.225  0.00  0.00    +0.000 OA
ATOM     21  H   UNL     1     114.347  74.476  83.847  0.00  0.00    +0.000 HD
ENDBRANCH  19  20
BRANCH  19  22
ATOM     22  C   UNL     1     114.848  76.358  82.707  0.00  0.00    +0.000 C 
BRANCH  22  23
ATOM     23  O   UNL     1     115.211  77.730  82.543  0.00  0.00    +0.000 OA
ATOM     24  H   UNL     1     115.926  77.892  83.190  0.00  0.00    +0.000 HD
ENDBRANCH  22  23
ENDBRANCH  19  22
ENDBRANCH  18  19
BRANCH  18  25
ATOM     25  C   UNL     1     111.066  76.225  83.664  0.00  0.00    +0.000 C 
BRANCH  25  26
ATOM     26  O   UNL     1     109.872  76.524  82.946  0.00  0.00    +0.000 OA
ATOM     27  H   UNL     1     109.147  76.526  83.596  0.00  0.00    +0.000 HD
ENDBRANCH  25  26
ENDBRANCH  18  25
ENDBRANCH  17  18
ENDBRANCH  16  17
ENDBRANCH  15  16
ENDBRANCH   1  15
TORSDOF 16
ENDMDL
MODEL 5
REMARK VINA RESULT:      -5.0     33.119     35.256
REMARK  Name = 
REMARK  16 active torsions:
REMARK  status: ('A' for Active; 'I' for Inactive)
REMARK    1  A    between atoms: O_1  and  C_2
REMARK    2  A    between atoms: C_2  and  C_3
REMARK    3  A    between atoms: C_3  and  C_4
REMARK    4  A    between atoms: C_3  and  C_18
REMARK    5  A    between atoms: C_4  and  O_5
REMARK    6  A    between atoms: O_5  and  C_6
REMARK    7  A    between atoms: C_6  and  C_7
REMARK    8  A    between atoms: C_7  and  O_8
REMARK    9  A    between atoms: C_7  and  C_10
REMARK   10  A    between atoms: O_8  and  O_9
REMARK   11  A    between atoms: C_12  and  C_13
REMARK   12  A    between atoms: C_13  and  O_14
REMARK   13  A    between atoms: C_13  and  O_15
REMARK   14  A    between atoms: C_18  and  O_19
REMARK   15  A    between atoms: C_18  and  C_20
REMARK   16  A    between atoms: C_20  and  O_21
REMARK                            x       y       z     vdW  Elec       q    Type
REMARK                         _______ _______ _______ _____ _____    ______ ____
ROOT
ATOM      1  C   UNL     1     102.809 107.968  79.369  0.00  0.00    +0.000 C 
ENDROOT
BRANCH   1   2
ATOM      2  C   UNL     1     104.083 108.666  78.883  0.00  0.00    +0.000 C 
ATOM      3  C   UNL     1     105.348 107.848  79.149  0.00  0.00    +0.000 C 
ATOM      4  C   UNL     1     106.421 108.907  79.206  0.00  0.00    +0.000 C 
ATOM      5  C   UNL     1     105.685 110.035  79.909  0.00  0.00    +0.000 C 
ATOM      6  O   UNL     1     104.294 109.925  79.549  0.00  0.00    +0.000 OA
BRANCH   4   7
ATOM      7  C   UNL     1     106.899 109.332  77.822  0.00  0.00    +0.000 C 
BRANCH   7   8
ATOM      8  O   UNL     1     106.108 110.397  77.336  0.00  0.00    +0.000 OA
ATOM      9  H   UNL     1     106.236 110.439  76.374  0.00  0.00    +0.000 HD
ENDBRANCH   7   8
BRANCH   7  10
ATOM     10  O   UNL     1     106.759 108.236  76.940  0.00  0.00    +0.000 OA
ATOM     11  H   UNL     1     107.387 107.561  77.242  0.00  0.00    +0.000 HD
ENDBRANCH   7  10
ENDBRANCH   4   7
ENDBRANCH   1   2
BRANCH   1  12
ATOM     12  O   UNL     1     101.898 108.941  79.911  0.00  0.00    +0.000 OA
BRANCH  12  13
ATOM     13  O   UNL     1     101.688 109.938  78.874  0.00  0.00    +0.000 OA
ATOM     14  H   UNL     1     102.482 109.732  78.346  0.00  0.00    +0.000 HD
ENDBRANCH  12  13
ENDBRANCH   1  12
BRANCH   1  15
ATOM     15  C   UNL     1     103.102 106.940  80.476  0.00  0.00    +0.000 C 
BRANCH  15  16
ATOM     16  O   UNL     1     102.171 105.839  80.436  0.00  0.00    +0.000 OA
BRANCH  16  17
ATOM     17  C   UNL     1     102.325 105.021  79.272  0.00  0.00    +0.000 C 
BRANCH  17  18
ATOM     18  C   UNL     1     101.432 103.776  79.380  0.00  0.00    +0.000 C 
BRANCH  18  19
ATOM     19  C   UNL     1     100.217 103.809  78.428  0.00  0.00    +0.000 C 
BRANCH  19  20
ATOM     20  O   UNL     1     100.256 104.939  77.544  0.00  0.00    +0.000 OA
ATOM     21  H   UNL     1     101.187 105.254  77.526  0.00  0.00    +0.000 HD
ENDBRANCH  19  20
BRANCH  19  22
ATOM     22  C   UNL     1     100.075 102.546  77.571  0.00  0.00    +0.000 C 
BRANCH  22  23
ATOM     23  O   UNL     1      99.760 101.431  78.406  0.00  0.00    +0.000 OA
ATOM     24  H   UNL     1     100.136 100.649  77.954  0.00  0.00    +0.000 HD
ENDBRANCH  22  23
ENDBRANCH  19  22
ENDBRANCH  18  19
BRANCH  18  25
ATOM     25  C   UNL     1     100.960 103.577  80.822  0.00  0.00    +0.000 C 
BRANCH  25  26
ATOM     26  O   UNL     1      99.583 103.207  80.821  0.00  0.00    +0.000 OA
ATOM     27  H   UNL     1      99.118 103.858  80.265  0.00  0.00    +0.000 HD
ENDBRANCH  25  26
ENDBRANCH  18  25
ENDBRANCH  17  18
ENDBRANCH  16  17
ENDBRANCH  15  16
ENDBRANCH   1  15
TORSDOF 16
ENDMDL
MODEL 6
REMARK VINA RESULT:      -4.8     32.118     34.074
REMARK  Name = 
REMARK  16 active torsions:
REMARK  status: ('A' for Active; 'I' for Inactive)
REMARK    1  A    between atoms: O_1  and  C_2
REMARK    2  A    between atoms: C_2  and  C_3
REMARK    3  A    between atoms: C_3  and  C_4
REMARK    4  A    between atoms: C_3  and  C_18
REMARK    5  A    between atoms: C_4  and  O_5
REMARK    6  A    between atoms: O_5  and  C_6
REMARK    7  A    between atoms: C_6  and  C_7
REMARK    8  A    between atoms: C_7  and  O_8
REMARK    9  A    between atoms: C_7  and  C_10
REMARK   10  A    between atoms: O_8  and  O_9
REMARK   11  A    between atoms: C_12  and  C_13
REMARK   12  A    between atoms: C_13  and  O_14
REMARK   13  A    between atoms: C_13  and  O_15
REMARK   14  A    between atoms: C_18  and  O_19
REMARK   15  A    between atoms: C_18  and  C_20
REMARK   16  A    between atoms: C_20  and  O_21
REMARK                            x       y       z     vdW  Elec       q    Type
REMARK                         _______ _______ _______ _____ _____    ______ ____
ROOT
ATOM      1  C   UNL     1     101.991 105.055  80.525  0.00  0.00    +0.000 C 
ENDROOT
BRANCH   1   2
ATOM      2  C   UNL     1     103.099 106.102  80.372  0.00  0.00    +0.000 C 
ATOM      3  C   UNL     1     102.660 107.499  80.811  0.00  0.00    +0.000 C 
ATOM      4  C   UNL     1     103.578 108.398  80.019  0.00  0.00    +0.000 C 
ATOM      5  C   UNL     1     103.662 107.647  78.701  0.00  0.00    +0.000 C 
ATOM      6  O   UNL     1     103.517 106.245  79.001  0.00  0.00    +0.000 OA
BRANCH   4   7
ATOM      7  C   UNL     1     104.952 108.547  80.663  0.00  0.00    +0.000 C 
BRANCH   7   8
ATOM      8  O   UNL     1     104.945 109.612  81.591  0.00  0.00    +0.000 OA
ATOM      9  H   UNL     1     104.051 109.992  81.593  0.00  0.00    +0.000 HD
ENDBRANCH   7   8
BRANCH   7  10
ATOM     10  O   UNL     1     105.894 108.845  79.652  0.00  0.00    +0.000 OA
ATOM     11  H   UNL     1     106.353 108.015  79.452  0.00  0.00    +0.000 HD
ENDBRANCH   7  10
ENDBRANCH   4   7
ENDBRANCH   1   2
BRANCH   1  12
ATOM     12  O   UNL     1     101.884 104.659  81.904  0.00  0.00    +0.000 OA
BRANCH  12  13
ATOM     13  O   UNL     1     100.468 104.679  82.236  0.00  0.00    +0.000 OA
ATOM     14  H   UNL     1     100.199 105.344  81.574  0.00  0.00    +0.000 HD
ENDBRANCH  12  13
ENDBRANCH   1  12
BRANCH   1  15
ATOM     15  C   UNL     1     102.276 103.788  79.700  0.00  0.00    +0.000 C 
BRANCH  15  16
ATOM     16  O   UNL     1     101.058 103.189  79.210  0.00  0.00    +0.000 OA
BRANCH  16  17
ATOM     17  C   UNL     1     100.344 104.037  78.306  0.00  0.00    +0.000 C 
BRANCH  17  18
ATOM     18  C   UNL     1      98.933 103.482  78.064  0.00  0.00    +0.000 C 
BRANCH  18  19
ATOM     19  C   UNL     1      98.929 102.106  77.362  0.00  0.00    +0.000 C 
BRANCH  19  20
ATOM     20  O   UNL     1      98.230 101.113  78.127  0.00  0.00    +0.000 OA
ATOM     21  H   UNL     1      98.496 100.238  77.769  0.00  0.00    +0.000 HD
ENDBRANCH  19  20
BRANCH  19  22
ATOM     22  C   UNL     1      98.314 102.136  75.958  0.00  0.00    +0.000 C 
BRANCH  22  23
ATOM     23  O   UNL     1      99.343 102.325  74.986  0.00  0.00    +0.000 OA
ATOM     24  H   UNL     1      99.445 101.460  74.539  0.00  0.00    +0.000 HD
ENDBRANCH  22  23
ENDBRANCH  19  22
ENDBRANCH  18  19
BRANCH  18  25
ATOM     25  C   UNL     1      98.093 104.478  77.263  0.00  0.00    +0.000 C 
BRANCH  25  26
ATOM     26  O   UNL     1      96.824 104.641  77.892  0.00  0.00    +0.000 OA
ATOM     27  H   UNL     1      96.756 103.945  78.570  0.00  0.00    +0.000 HD
ENDBRANCH  25  26
ENDBRANCH  18  25
ENDBRANCH  17  18
ENDBRANCH  16  17
ENDBRANCH  15  16
ENDBRANCH   1  15
TORSDOF 16
ENDMDL
MODEL 7
REMARK VINA RESULT:      -4.8     18.519     20.633
REMARK  Name = 
REMARK  16 active torsions:
REMARK  status: ('A' for Active; 'I' for Inactive)
REMARK    1  A    between atoms: O_1  and  C_2
REMARK    2  A    between atoms: C_2  and  C_3
REMARK    3  A    between atoms: C_3  and  C_4
REMARK    4  A    between atoms: C_3  and  C_18
REMARK    5  A    between atoms: C_4  and  O_5
REMARK    6  A    between atoms: O_5  and  C_6
REMARK    7  A    between atoms: C_6  and  C_7
REMARK    8  A    between atoms: C_7  and  O_8
REMARK    9  A    between atoms: C_7  and  C_10
REMARK   10  A    between atoms: O_8  and  O_9
REMARK   11  A    between atoms: C_12  and  C_13
REMARK   12  A    between atoms: C_13  and  O_14
REMARK   13  A    between atoms: C_13  and  O_15
REMARK   14  A    between atoms: C_18  and  O_19
REMARK   15  A    between atoms: C_18  and  C_20
REMARK   16  A    between atoms: C_20  and  O_21
REMARK                            x       y       z     vdW  Elec       q    Type
REMARK                         _______ _______ _______ _____ _____    ______ ____
ROOT
ATOM      1  C   UNL     1     107.146  74.561  98.905  0.00  0.00    +0.000 C 
ENDROOT
BRANCH   1   2
ATOM      2  C   UNL     1     108.473  75.180  99.357  0.00  0.00    +0.000 C 
ATOM      3  C   UNL     1     109.007  76.222  98.373  0.00  0.00    +0.000 C 
ATOM      4  C   UNL     1     110.492  76.202  98.644  0.00  0.00    +0.000 C 
ATOM      5  C   UNL     1     110.726  74.723  98.897  0.00  0.00    +0.000 C 
ATOM      6  O   UNL     1     109.515  74.193  99.472  0.00  0.00    +0.000 OA
BRANCH   4   7
ATOM      7  C   UNL     1     110.877  77.042  99.856  0.00  0.00    +0.000 C 
BRANCH   7   8
ATOM      8  O   UNL     1     111.996  77.852  99.556  0.00  0.00    +0.000 OA
ATOM      9  H   UNL     1     111.846  78.242  98.678  0.00  0.00    +0.000 HD
ENDBRANCH   7   8
BRANCH   7  10
ATOM     10  O   UNL     1     111.230  76.173 100.914  0.00  0.00    +0.000 OA
ATOM     11  H   UNL     1     112.063  76.511 101.279  0.00  0.00    +0.000 HD
ENDBRANCH   7  10
ENDBRANCH   4   7
ENDBRANCH   1   2
BRANCH   1  12
ATOM     12  O   UNL     1     107.360  73.759  97.730  0.00  0.00    +0.000 OA
BRANCH  12  13
ATOM     13  O   UNL     1     107.666  72.414  98.192  0.00  0.00    +0.000 OA
ATOM     14  H   UNL     1     106.826  72.254  98.660  0.00  0.00    +0.000 HD
ENDBRANCH  12  13
ENDBRANCH   1  12
BRANCH   1  15
ATOM     15  C   UNL     1     106.100  75.632  98.552  0.00  0.00    +0.000 C 
BRANCH  15  16
ATOM     16  O   UNL     1     104.757  75.151  98.762  0.00  0.00    +0.000 OA
BRANCH  16  17
ATOM     17  C   UNL     1     104.428  75.003 100.147  0.00  0.00    +0.000 C 
BRANCH  17  18
ATOM     18  C   UNL     1     103.186  75.840 100.487  0.00  0.00    +0.000 C 
BRANCH  18  19
ATOM     19  C   UNL     1     101.901  75.340  99.791  0.00  0.00    +0.000 C 
BRANCH  19  20
ATOM     20  O   UNL     1     102.121  74.120  99.068  0.00  0.00    +0.000 OA
ATOM     21  H   UNL     1     101.599  73.422  99.521  0.00  0.00    +0.000 HD
ENDBRANCH  19  20
BRANCH  19  22
ATOM     22  C   UNL     1     100.732  75.111 100.755  0.00  0.00    +0.000 C 
BRANCH  22  23
ATOM     23  O   UNL     1     101.138  75.422 102.088  0.00  0.00    +0.000 OA
ATOM     24  H   UNL     1     102.088  75.190 102.135  0.00  0.00    +0.000 HD
ENDBRANCH  22  23
ENDBRANCH  19  22
ENDBRANCH  18  19
BRANCH  18  25
ATOM     25  C   UNL     1     103.422  77.313 100.149  0.00  0.00    +0.000 C 
BRANCH  25  26
ATOM     26  O   UNL     1     103.235  77.514  98.751  0.00  0.00    +0.000 OA
ATOM     27  H   UNL     1     104.047  77.204  98.311  0.00  0.00    +0.000 HD
ENDBRANCH  25  26
ENDBRANCH  18  25
ENDBRANCH  17  18
ENDBRANCH  16  17
ENDBRANCH  15  16
ENDBRANCH   1  15
TORSDOF 16
ENDMDL
MODEL 8
REMARK VINA RESULT:      -4.8     18.704     20.682
REMARK  Name = 
REMARK  16 active torsions:
REMARK  status: ('A' for Active; 'I' for Inactive)
REMARK    1  A    between atoms: O_1  and  C_2
REMARK    2  A    between atoms: C_2  and  C_3
REMARK    3  A    between atoms: C_3  and  C_4
REMARK    4  A    between atoms: C_3  and  C_18
REMARK    5  A    between atoms: C_4  and  O_5
REMARK    6  A    between atoms: O_5  and  C_6
REMARK    7  A    between atoms: C_6  and  C_7
REMARK    8  A    between atoms: C_7  and  O_8
REMARK    9  A    between atoms: C_7  and  C_10
REMARK   10  A    between atoms: O_8  and  O_9
REMARK   11  A    between atoms: C_12  and  C_13
REMARK   12  A    between atoms: C_13  and  O_14
REMARK   13  A    between atoms: C_13  and  O_15
REMARK   14  A    between atoms: C_18  and  O_19
REMARK   15  A    between atoms: C_18  and  C_20
REMARK   16  A    between atoms: C_20  and  O_21
REMARK                            x       y       z     vdW  Elec       q    Type
REMARK                         _______ _______ _______ _____ _____    ______ ____
ROOT
ATOM      1  C   UNL     1     107.959  73.831 100.162  0.00  0.00    +0.000 C 
ENDROOT
BRANCH   1   2
ATOM      2  C   UNL     1     109.036  74.912 100.030  0.00  0.00    +0.000 C 
ATOM      3  C   UNL     1     109.282  75.331  98.580  0.00  0.00    +0.000 C 
ATOM      4  C   UNL     1     110.700  75.846  98.622  0.00  0.00    +0.000 C 
ATOM      5  C   UNL     1     111.340  74.873  99.597  0.00  0.00    +0.000 C 
ATOM      6  O   UNL     1     110.313  74.460 100.520  0.00  0.00    +0.000 OA
BRANCH   4   7
ATOM      7  C   UNL     1     110.789  77.281  99.129  0.00  0.00    +0.000 C 
BRANCH   7   8
ATOM      8  O   UNL     1     111.516  78.079  98.218  0.00  0.00    +0.000 OA
ATOM      9  H   UNL     1     111.200  78.993  98.314  0.00  0.00    +0.000 HD
ENDBRANCH   7   8
BRANCH   7  10
ATOM     10  O   UNL     1     111.475  77.282 100.366  0.00  0.00    +0.000 OA
ATOM     11  H   UNL     1     111.610  76.351 100.603  0.00  0.00    +0.000 HD
ENDBRANCH   7  10
ENDBRANCH   4   7
ENDBRANCH   1   2
BRANCH   1  12
ATOM     12  O   UNL     1     108.313  72.691  99.358  0.00  0.00    +0.000 OA
BRANCH  12  13
ATOM     13  O   UNL     1     109.039  71.778 100.226  0.00  0.00    +0.000 OA
ATOM     14  H   UNL     1     108.622  72.051 101.064  0.00  0.00    +0.000 HD
ENDBRANCH  12  13
ENDBRANCH   1  12
BRANCH   1  15
ATOM     15  C   UNL     1     106.583  74.326  99.683  0.00  0.00    +0.000 C 
BRANCH  15  16
ATOM     16  O   UNL     1     105.509  73.570 100.280  0.00  0.00    +0.000 OA
BRANCH  16  17
ATOM     17  C   UNL     1     104.526  74.398 100.907  0.00  0.00    +0.000 C 
BRANCH  17  18
ATOM     18  C   UNL     1     103.702  75.138  99.843  0.00  0.00    +0.000 C 
BRANCH  18  19
ATOM     19  C   UNL     1     103.918  76.668  99.856  0.00  0.00    +0.000 C 
BRANCH  19  20
ATOM     20  O   UNL     1     103.183  77.324  98.814  0.00  0.00    +0.000 OA
ATOM     21  H   UNL     1     102.265  76.976  98.850  0.00  0.00    +0.000 HD
ENDBRANCH  19  20
BRANCH  19  22
ATOM     22  C   UNL     1     103.540  77.328 101.186  0.00  0.00    +0.000 C 
BRANCH  22  23
ATOM     23  O   UNL     1     103.173  78.690 100.960  0.00  0.00    +0.000 OA
ATOM     24  H   UNL     1     102.228  78.753 101.207  0.00  0.00    +0.000 HD
ENDBRANCH  22  23
ENDBRANCH  19  22
ENDBRANCH  18  19
BRANCH  18  25
ATOM     25  C   UNL     1     102.214  74.820  99.997  0.00  0.00    +0.000 C 
BRANCH  25  26
ATOM     26  O   UNL     1     101.623  74.683  98.707  0.00  0.00    +0.000 OA
ATOM     27  H   UNL     1     102.183  74.063  98.207  0.00  0.00    +0.000 HD
ENDBRANCH  25  26
ENDBRANCH  18  25
ENDBRANCH  17  18
ENDBRANCH  16  17
ENDBRANCH  15  16
ENDBRANCH   1  15
TORSDOF 16
ENDMDL
MODEL 9
REMARK VINA RESULT:      -4.8     17.808     22.327
REMARK  Name = 
REMARK  16 active torsions:
REMARK  status: ('A' for Active; 'I' for Inactive)
REMARK    1  A    between atoms: O_1  and  C_2
REMARK    2  A    between atoms: C_2  and  C_3
REMARK    3  A    between atoms: C_3  and  C_4
REMARK    4  A    between atoms: C_3  and  C_18
REMARK    5  A    between atoms: C_4  and  O_5
REMARK    6  A    between atoms: O_5  and  C_6
REMARK    7  A    between atoms: C_6  and  C_7
REMARK    8  A    between atoms: C_7  and  O_8
REMARK    9  A    between atoms: C_7  and  C_10
REMARK   10  A    between atoms: O_8  and  O_9
REMARK   11  A    between atoms: C_12  and  C_13
REMARK   12  A    between atoms: C_13  and  O_14
REMARK   13  A    between atoms: C_13  and  O_15
REMARK   14  A    between atoms: C_18  and  O_19
REMARK   15  A    between atoms: C_18  and  C_20
REMARK   16  A    between atoms: C_20  and  O_21
REMARK                            x       y       z     vdW  Elec       q    Type
REMARK                         _______ _______ _______ _____ _____    ______ ____
ROOT
ATOM      1  C   UNL     1     103.982  75.715  99.595  0.00  0.00    +0.000 C 
ENDROOT
BRANCH   1   2
ATOM      2  C   UNL     1     105.150  75.146  98.783  0.00  0.00    +0.000 C 
ATOM      3  C   UNL     1     106.297  74.647  99.663  0.00  0.00    +0.000 C 
ATOM      4  C   UNL     1     107.489  74.751  98.742  0.00  0.00    +0.000 C 
ATOM      5  C   UNL     1     107.170  76.032  97.991  0.00  0.00    +0.000 C 
ATOM      6  O   UNL     1     105.735  76.136  97.916  0.00  0.00    +0.000 OA
BRANCH   4   7
ATOM      7  C   UNL     1     107.603  73.563  97.793  0.00  0.00    +0.000 C 
BRANCH   7   8
ATOM      8  O   UNL     1     107.843  72.376  98.521  0.00  0.00    +0.000 OA
ATOM      9  H   UNL     1     107.284  71.681  98.136  0.00  0.00    +0.000 HD
ENDBRANCH   7   8
BRANCH   7  10
ATOM     10  O   UNL     1     108.698  73.782  96.925  0.00  0.00    +0.000 OA
ATOM     11  H   UNL     1     109.481  73.438  97.382  0.00  0.00    +0.000 HD
ENDBRANCH   7  10
ENDBRANCH   4   7
ENDBRANCH   1   2
BRANCH   1  12
ATOM     12  O   UNL     1     104.192  75.457 100.995  0.00  0.00    +0.000 OA
BRANCH  12  13
ATOM     13  O   UNL     1     103.423  74.267 101.319  0.00  0.00    +0.000 OA
ATOM     14  H   UNL     1     103.603  74.264 102.277  0.00  0.00    +0.000 HD
ENDBRANCH  12  13
ENDBRANCH   1  12
BRANCH   1  15
ATOM     15  C   UNL     1     102.640  75.074  99.202  0.00  0.00    +0.000 C 
BRANCH  15  16
ATOM     16  O   UNL     1     101.526  75.923  99.546  0.00  0.00    +0.000 OA
BRANCH  16  17
ATOM     17  C   UNL     1     100.361  75.186  99.930  0.00  0.00    +0.000 C 
BRANCH  17  18
ATOM     18  C   UNL     1      99.487  76.031 100.869  0.00  0.00    +0.000 C 
BRANCH  18  19
ATOM     19  C   UNL     1     100.210  76.445 102.170  0.00  0.00    +0.000 C 
BRANCH  19  20
ATOM     20  O   UNL     1     101.351  75.617 102.439  0.00  0.00    +0.000 OA
ATOM     21  H   UNL     1     101.877  75.579 101.610  0.00  0.00    +0.000 HD
ENDBRANCH  19  20
BRANCH  19  22
ATOM     22  C   UNL     1     100.677  77.905 102.174  0.00  0.00    +0.000 C 
BRANCH  22  23
ATOM     23  O   UNL     1     101.849  78.038 101.369  0.00  0.00    +0.000 OA
ATOM     24  H   UNL     1     102.457  77.332 101.670  0.00  0.00    +0.000 HD
ENDBRANCH  22  23
ENDBRANCH  19  22
ENDBRANCH  18  19
BRANCH  18  25
ATOM     25  C   UNL     1      98.190  75.294 101.206  0.00  0.00    +0.000 C 
BRANCH  25  26
ATOM     26  O   UNL     1      98.465  74.255 102.142  0.00  0.00    +0.000 OA
ATOM     27  H   UNL     1      97.657  73.715 102.207  0.00  0.00    +0.000 HD
ENDBRANCH  25  26
ENDBRANCH  18  25
ENDBRANCH  17  18
ENDBRANCH  16  17
ENDBRANCH  15  16
ENDBRANCH   1  15
TORSDOF 16
ENDMDL
