MODEL 1
REMARK VINA RESULT:      -5.2      0.000      0.000
REMARK  Name = 
REMARK  6 active torsions:
REMARK  status: ('A' for Active; 'I' for Inactive)
REMARK    1  A    between atoms: C_2  and  O_3
REMARK    2  A    between atoms: C_2  and  C_4
REMARK    3  A    between atoms: C_4  and  C_5
REMARK    4  A    between atoms: C_4  and  C_7
REMARK    5  A    between atoms: C_5  and  O_6
REMARK    6  A    between atoms: C_7  and  C_8
REMARK                            x       y       z     vdW  Elec       q    Type
REMARK                         _______ _______ _______ _____ _____    ______ ____
ROOT
ATOM      1  C   UNL     1     104.983  75.831  99.747  0.00  0.00    +0.000 C 
ENDROOT
BRANCH   1   3
ATOM      2  O   UNL     1     102.788  75.329  98.866  0.00  0.00    +0.000 OA
ATOM      3  C   UNL     1     103.697  76.139  99.009  0.00  0.00    +0.000 C 
BRANCH   3   4
ATOM      4  O   UNL     1     103.606  77.400  98.541  0.00  0.00    +0.000 OA
ATOM      5  H   UNL     1     102.726  77.814  98.621  0.00  0.00    +0.000 HD
ENDBRANCH   3   4
ENDBRANCH   1   3
BRANCH   1   6
ATOM      6  C   UNL     1     104.636  74.927 100.935  0.00  0.00    +0.000 C 
BRANCH   6   7
ATOM      7  O   UNL     1     104.368  73.586 100.552  0.00  0.00    +0.000 OA
ATOM      8  H   UNL     1     105.214  73.091 100.569  0.00  0.00    +0.000 HD
ENDBRANCH   6   7
ENDBRANCH   1   6
BRANCH   1   9
ATOM      9  C   UNL     1     106.021  75.189  98.811  0.00  0.00    +0.000 C 
BRANCH   9  10
ATOM     10  C   UNL     1     107.491  75.221  99.316  0.00  0.00    +0.000 C 
ATOM     11  C   UNL     1     108.369  75.966  98.283  0.00  0.00    +0.000 C 
ATOM     12  C   UNL     1     109.746  76.347  98.825  0.00  0.00    +0.000 C 
ATOM     13  C   UNL     1     110.796  75.239  98.756  0.00  0.00    +0.000 C 
ATOM     14  O   UNL     1     110.310  73.921  98.951  0.00  0.00    +0.000 OA
ATOM     15  C   UNL     1     109.469  73.760 100.081  0.00  0.00    +0.000 C 
ATOM     16  C   UNL     1     108.015  73.808  99.628  0.00  0.00    +0.000 C 
ENDBRANCH   9  10
ENDBRANCH   1   9
TORSDOF 6
ENDMDL
MODEL 2
REMARK VINA RESULT:      -5.0     34.025     35.758
REMARK  Name = 
REMARK  6 active torsions:
REMARK  status: ('A' for Active; 'I' for Inactive)
REMARK    1  A    between atoms: C_2  and  O_3
REMARK    2  A    between atoms: C_2  and  C_4
REMARK    3  A    between atoms: C_4  and  C_5
REMARK    4  A    between atoms: C_4  and  C_7
REMARK    5  A    between atoms: C_5  and  O_6
REMARK    6  A    between atoms: C_7  and  C_8
REMARK                            x       y       z     vdW  Elec       q    Type
REMARK                         _______ _______ _______ _____ _____    ______ ____
ROOT
ATOM      1  C   UNL     1      99.555 103.505  76.928  0.00  0.00    +0.000 C 
ENDROOT
BRANCH   1   3
ATOM      2  O   UNL     1      98.351 101.418  77.130  0.00  0.00    +0.000 OA
ATOM      3  C   UNL     1      98.702 102.359  76.427  0.00  0.00    +0.000 C 
BRANCH   3   4
ATOM      4  O   UNL     1      98.321 102.464  75.138  0.00  0.00    +0.000 OA
ATOM      5  H   UNL     1      97.377 102.287  74.965  0.00  0.00    +0.000 HD
ENDBRANCH   3   4
ENDBRANCH   1   3
BRANCH   1   6
ATOM      6  C   UNL     1      98.984 104.803  76.346  0.00  0.00    +0.000 C 
BRANCH   6   7
ATOM      7  O   UNL     1      97.625 105.017  76.699  0.00  0.00    +0.000 OA
ATOM      8  H   UNL     1      97.160 104.156  76.650  0.00  0.00    +0.000 HD
ENDBRANCH   6   7
ENDBRANCH   1   6
BRANCH   1   9
ATOM      9  C   UNL     1      99.608 103.529  78.465  0.00  0.00    +0.000 C 
BRANCH   9  10
ATOM     10  C   UNL     1     101.012 103.309  79.093  0.00  0.00    +0.000 C 
ATOM     11  C   UNL     1     100.851 102.687  80.500  0.00  0.00    +0.000 C 
ATOM     12  C   UNL     1     102.155 102.123  81.064  0.00  0.00    +0.000 C 
ATOM     13  C   UNL     1     103.061 103.150  81.741  0.00  0.00    +0.000 C 
ATOM     14  O   UNL     1     103.052 104.448  81.169  0.00  0.00    +0.000 OA
ATOM     15  C   UNL     1     103.208 104.476  79.761  0.00  0.00    +0.000 C 
ATOM     16  C   UNL     1     101.836 104.609  79.112  0.00  0.00    +0.000 C 
ENDBRANCH   9  10
ENDBRANCH   1   9
TORSDOF 6
ENDMDL
MODEL 3
REMARK VINA RESULT:      -5.0     16.250     18.047
REMARK  Name = 
REMARK  6 active torsions:
REMARK  status: ('A' for Active; 'I' for Inactive)
REMARK    1  A    between atoms: C_2  and  O_3
REMARK    2  A    between atoms: C_2  and  C_4
REMARK    3  A    between atoms: C_4  and  C_5
REMARK    4  A    between atoms: C_4  and  C_7
REMARK    5  A    between atoms: C_5  and  O_6
REMARK    6  A    between atoms: C_7  and  C_8
REMARK                            x       y       z     vdW  Elec       q    Type
REMARK                         _______ _______ _______ _____ _____    ______ ____
ROOT
ATOM      1  C   UNL     1     113.425  75.618  84.713  0.00  0.00    +0.000 C 
ENDROOT
BRANCH   1   3
ATOM      2  O   UNL     1     114.507  77.224  86.161  0.00  0.00    +0.000 OA
ATOM      3  C   UNL     1     114.453  76.080  85.725  0.00  0.00    +0.000 C 
BRANCH   3   4
ATOM      4  O   UNL     1     115.300  75.118  86.144  0.00  0.00    +0.000 OA
ATOM      5  H   UNL     1     116.230  75.232  85.871  0.00  0.00    +0.000 HD
ENDBRANCH   3   4
ENDBRANCH   1   3
BRANCH   1   6
ATOM      6  C   UNL     1     112.163  75.210  85.482  0.00  0.00    +0.000 C 
BRANCH   6   7
ATOM      7  O   UNL     1     112.328  75.275  86.891  0.00  0.00    +0.000 OA
ATOM      8  H   UNL     1     111.977  76.137  87.198  0.00  0.00    +0.000 HD
ENDBRANCH   6   7
ENDBRANCH   1   6
BRANCH   1   9
ATOM      9  C   UNL     1     113.143  76.710  83.668  0.00  0.00    +0.000 C 
BRANCH   9  10
ATOM     10  C   UNL     1     113.763  76.471  82.263  0.00  0.00    +0.000 C 
ATOM     11  C   UNL     1     112.679  76.695  81.182  0.00  0.00    +0.000 C 
ATOM     12  C   UNL     1     113.251  76.815  79.770  0.00  0.00    +0.000 C 
ATOM     13  C   UNL     1     113.521  75.485  79.068  0.00  0.00    +0.000 C 
ATOM     14  O   UNL     1     113.951  74.425  79.907  0.00  0.00    +0.000 OA
ATOM     15  C   UNL     1     115.006  74.761  80.792  0.00  0.00    +0.000 C 
ATOM     16  C   UNL     1     114.421  75.082  82.161  0.00  0.00    +0.000 C 
ENDBRANCH   9  10
ENDBRANCH   1   9
TORSDOF 6
ENDMDL
MODEL 4
REMARK VINA RESULT:      -4.9     38.139     39.248
REMARK  Name = 
REMARK  6 active torsions:
REMARK  status: ('A' for Active; 'I' for Inactive)
REMARK    1  A    between atoms: C_2  and  O_3
REMARK    2  A    between atoms: C_2  and  C_4
REMARK    3  A    between atoms: C_4  and  C_5
REMARK    4  A    between atoms: C_4  and  C_7
REMARK    5  A    between atoms: C_5  and  O_6
REMARK    6  A    between atoms: C_7  and  C_8
REMARK                            x       y       z     vdW  Elec       q    Type
REMARK                         _______ _______ _______ _____ _____    ______ ____
ROOT
ATOM      1  C   UNL     1     103.625 109.248  79.236  0.00  0.00    +0.000 C 
ENDROOT
BRANCH   1   3
ATOM      2  O   UNL     1     103.241 107.532  80.896  0.00  0.00    +0.000 OA
ATOM      3  C   UNL     1     103.118 107.912  79.736  0.00  0.00    +0.000 C 
BRANCH   3   4
ATOM      4  O   UNL     1     102.483 107.168  78.808  0.00  0.00    +0.000 OA
ATOM      5  H   UNL     1     102.169 107.657  78.024  0.00  0.00    +0.000 HD
ENDBRANCH   3   4
ENDBRANCH   1   3
BRANCH   1   6
ATOM      6  C   UNL     1     102.443 110.224  79.230  0.00  0.00    +0.000 C 
BRANCH   6   7
ATOM      7  O   UNL     1     101.333 109.754  79.983  0.00  0.00    +0.000 OA
ATOM      8  H   UNL     1     101.376 108.776  80.006  0.00  0.00    +0.000 HD
ENDBRANCH   6   7
ENDBRANCH   1   6
BRANCH   1   9
ATOM      9  C   UNL     1     104.796 109.756  80.094  0.00  0.00    +0.000 C 
BRANCH   9  10
ATOM     10  C   UNL     1     106.200 109.667  79.434  0.00  0.00    +0.000 C 
ATOM     11  C   UNL     1     106.675 108.195  79.441  0.00  0.00    +0.000 C 
ATOM     12  C   UNL     1     107.875 107.943  78.529  0.00  0.00    +0.000 C 
ATOM     13  C   UNL     1     109.234 108.270  79.145  0.00  0.00    +0.000 C 
ATOM     14  O   UNL     1     109.254 109.375  80.035  0.00  0.00    +0.000 OA
ATOM     15  C   UNL     1     108.620 110.543  79.544  0.00  0.00    +0.000 C 
ATOM     16  C   UNL     1     107.207 110.616  80.110  0.00  0.00    +0.000 C 
ENDBRANCH   9  10
ENDBRANCH   1   9
TORSDOF 6
ENDMDL
MODEL 5
REMARK VINA RESULT:      -4.7     30.143     31.334
REMARK  Name = 
REMARK  6 active torsions:
REMARK  status: ('A' for Active; 'I' for Inactive)
REMARK    1  A    between atoms: C_2  and  O_3
REMARK    2  A    between atoms: C_2  and  C_4
REMARK    3  A    between atoms: C_4  and  C_5
REMARK    4  A    between atoms: C_4  and  C_7
REMARK    5  A    between atoms: C_5  and  O_6
REMARK    6  A    between atoms: C_7  and  C_8
REMARK                            x       y       z     vdW  Elec       q    Type
REMARK                         _______ _______ _______ _____ _____    ______ ____
ROOT
ATOM      1  C   UNL     1     106.786 106.562 107.794  0.00  0.00    +0.000 C 
ENDROOT
BRANCH   1   3
ATOM      2  O   UNL     1     107.763 108.772 107.717  0.00  0.00    +0.000 OA
ATOM      3  C   UNL     1     106.967 107.964 107.252  0.00  0.00    +0.000 C 
BRANCH   3   4
ATOM      4  O   UNL     1     106.200 108.257 106.182  0.00  0.00    +0.000 OA
ATOM      5  H   UNL     1     105.478 107.626 106.001  0.00  0.00    +0.000 HD
ENDBRANCH   3   4
ENDBRANCH   1   3
BRANCH   1   6
ATOM      6  C   UNL     1     105.796 106.636 108.962  0.00  0.00    +0.000 C 
BRANCH   6   7
ATOM      7  O   UNL     1     105.150 107.898 109.061  0.00  0.00    +0.000 OA
ATOM      8  H   UNL     1     105.718 108.565 108.622  0.00  0.00    +0.000 HD
ENDBRANCH   6   7
ENDBRANCH   1   6
BRANCH   1   9
ATOM      9  C   UNL     1     106.316 105.596 106.693  0.00  0.00    +0.000 C 
BRANCH   9  10
ATOM     10  C   UNL     1     107.444 104.946 105.844  0.00  0.00    +0.000 C 
ATOM     11  C   UNL     1     107.093 105.078 104.343  0.00  0.00    +0.000 C 
ATOM     12  C   UNL     1     108.273 104.779 103.419  0.00  0.00    +0.000 C 
ATOM     13  C   UNL     1     108.502 103.298 103.124  0.00  0.00    +0.000 C 
ATOM     14  O   UNL     1     108.207 102.407 104.188  0.00  0.00    +0.000 OA
ATOM     15  C   UNL     1     108.765 102.773 105.439  0.00  0.00    +0.000 C 
ATOM     16  C   UNL     1     107.703 103.488 106.265  0.00  0.00    +0.000 C 
ENDBRANCH   9  10
ENDBRANCH   1   9
TORSDOF 6
ENDMDL
MODEL 6
REMARK VINA RESULT:      -4.7     20.067     21.362
REMARK  Name = 
REMARK  6 active torsions:
REMARK  status: ('A' for Active; 'I' for Inactive)
REMARK    1  A    between atoms: C_2  and  O_3
REMARK    2  A    between atoms: C_2  and  C_4
REMARK    3  A    between atoms: C_4  and  C_5
REMARK    4  A    between atoms: C_4  and  C_7
REMARK    5  A    between atoms: C_5  and  O_6
REMARK    6  A    between atoms: C_7  and  C_8
REMARK                            x       y       z     vdW  Elec       q    Type
REMARK                         _______ _______ _______ _____ _____    ______ ____
ROOT
ATOM      1  C   UNL     1     111.429  72.900  78.347  0.00  0.00    +0.000 C 
ENDROOT
BRANCH   1   3
ATOM      2  O   UNL     1     111.216  72.501  75.972  0.00  0.00    +0.000 OA
ATOM      3  C   UNL     1     110.693  72.848  77.025  0.00  0.00    +0.000 C 
BRANCH   3   4
ATOM      4  O   UNL     1     109.389  73.184  77.094  0.00  0.00    +0.000 OA
ATOM      5  H   UNL     1     109.188  74.120  76.906  0.00  0.00    +0.000 HD
ENDBRANCH   3   4
ENDBRANCH   1   3
BRANCH   1   6
ATOM      6  C   UNL     1     111.404  71.492  78.953  0.00  0.00    +0.000 C 
BRANCH   6   7
ATOM      7  O   UNL     1     110.326  70.701  78.471  0.00  0.00    +0.000 OA
ATOM      8  H   UNL     1     109.571  71.298  78.287  0.00  0.00    +0.000 HD
ENDBRANCH   6   7
ENDBRANCH   1   6
BRANCH   1   9
ATOM      9  C   UNL     1     112.862  73.430  78.166  0.00  0.00    +0.000 C 
BRANCH   9  10
ATOM     10  C   UNL     1     113.342  74.447  79.238  0.00  0.00    +0.000 C 
ATOM     11  C   UNL     1     112.299  74.518  80.377  0.00  0.00    +0.000 C 
ATOM     12  C   UNL     1     112.819  75.223  81.630  0.00  0.00    +0.000 C 
ATOM     13  C   UNL     1     112.728  76.747  81.598  0.00  0.00    +0.000 C 
ATOM     14  O   UNL     1     112.925  77.347  80.327  0.00  0.00    +0.000 OA
ATOM     15  C   UNL     1     114.067  76.888  79.626  0.00  0.00    +0.000 C 
ATOM     16  C   UNL     1     113.639  75.826  78.621  0.00  0.00    +0.000 C 
ENDBRANCH   9  10
ENDBRANCH   1   9
TORSDOF 6
ENDMDL
MODEL 7
REMARK VINA RESULT:      -4.7     22.846     24.218
REMARK  Name = 
REMARK  6 active torsions:
REMARK  status: ('A' for Active; 'I' for Inactive)
REMARK    1  A    between atoms: C_2  and  O_3
REMARK    2  A    between atoms: C_2  and  C_4
REMARK    3  A    between atoms: C_4  and  C_5
REMARK    4  A    between atoms: C_4  and  C_7
REMARK    5  A    between atoms: C_5  and  O_6
REMARK    6  A    between atoms: C_7  and  C_8
REMARK                            x       y       z     vdW  Elec       q    Type
REMARK                         _______ _______ _______ _____ _____    ______ ____
ROOT
ATOM      1  C   UNL     1     112.600  74.830  74.555  0.00  0.00    +0.000 C 
ENDROOT
BRANCH   1   3
ATOM      2  O   UNL     1     111.954  77.145  74.290  0.00  0.00    +0.000 OA
ATOM      3  C   UNL     1     111.741  75.964  74.037  0.00  0.00    +0.000 C 
BRANCH   3   4
ATOM      4  O   UNL     1     110.725  75.580  73.238  0.00  0.00    +0.000 OA
ATOM      5  H   UNL     1     110.430  74.658  73.352  0.00  0.00    +0.000 HD
ENDBRANCH   3   4
ENDBRANCH   1   3
BRANCH   1   6
ATOM      6  C   UNL     1     113.820  74.710  73.634  0.00  0.00    +0.000 C 
BRANCH   6   7
ATOM      7  O   UNL     1     113.736  75.549  72.491  0.00  0.00    +0.000 OA
ATOM      8  H   UNL     1     113.862  74.991  71.695  0.00  0.00    +0.000 HD
ENDBRANCH   6   7
ENDBRANCH   1   6
BRANCH   1   9
ATOM      9  C   UNL     1     112.999  75.058  76.023  0.00  0.00    +0.000 C 
BRANCH   9  10
ATOM     10  C   UNL     1     112.527  73.968  77.024  0.00  0.00    +0.000 C 
ATOM     11  C   UNL     1     111.088  73.532  76.663  0.00  0.00    +0.000 C 
ATOM     12  C   UNL     1     110.653  72.244  77.362  0.00  0.00    +0.000 C 
ATOM     13  C   UNL     1     110.124  72.429  78.783  0.00  0.00    +0.000 C 
ATOM     14  O   UNL     1     110.741  73.459  79.539  0.00  0.00    +0.000 OA
ATOM     15  C   UNL     1     112.158  73.441  79.518  0.00  0.00    +0.000 C 
ATOM     16  C   UNL     1     112.652  74.444  78.483  0.00  0.00    +0.000 C 
ENDBRANCH   9  10
ENDBRANCH   1   9
TORSDOF 6
ENDMDL
MODEL 8
REMARK VINA RESULT:      -4.6     31.201     32.352
REMARK  Name = 
REMARK  6 active torsions:
REMARK  status: ('A' for Active; 'I' for Inactive)
REMARK    1  A    between atoms: C_2  and  O_3
REMARK    2  A    between atoms: C_2  and  C_4
REMARK    3  A    between atoms: C_4  and  C_5
REMARK    4  A    between atoms: C_4  and  C_7
REMARK    5  A    between atoms: C_5  and  O_6
REMARK    6  A    between atoms: C_7  and  C_8
REMARK                            x       y       z     vdW  Elec       q    Type
REMARK                         _______ _______ _______ _____ _____    ______ ____
ROOT
ATOM      1  C   UNL     1     107.486 106.321 107.072  0.00  0.00    +0.000 C 
ENDROOT
BRANCH   1   3
ATOM      2  O   UNL     1     105.481 107.596 107.521  0.00  0.00    +0.000 OA
ATOM      3  C   UNL     1     106.699 107.495 107.615  0.00  0.00    +0.000 C 
BRANCH   3   4
ATOM      4  O   UNL     1     107.442 108.424 108.251  0.00  0.00    +0.000 OA
ATOM      5  H   UNL     1     107.197 109.351 108.070  0.00  0.00    +0.000 HD
ENDBRANCH   3   4
ENDBRANCH   1   3
BRANCH   1   6
ATOM      6  C   UNL     1     107.200 105.111 107.969  0.00  0.00    +0.000 C 
BRANCH   6   7
ATOM      7  O   UNL     1     106.841 105.476 109.294  0.00  0.00    +0.000 OA
ATOM      8  H   UNL     1     106.113 104.888 109.584  0.00  0.00    +0.000 HD
ENDBRANCH   6   7
ENDBRANCH   1   6
BRANCH   1   9
ATOM      9  C   UNL     1     107.137 106.051 105.599  0.00  0.00    +0.000 C 
BRANCH   9  10
ATOM     10  C   UNL     1     108.299 106.246 104.586  0.00  0.00    +0.000 C 
ATOM     11  C   UNL     1     108.666 107.747 104.514  0.00  0.00    +0.000 C 
ATOM     12  C   UNL     1     110.000 108.010 103.815  0.00  0.00    +0.000 C 
ATOM     13  C   UNL     1     109.928 108.066 102.290  0.00  0.00    +0.000 C 
ATOM     14  O   UNL     1     108.984 107.195 101.688  0.00  0.00    +0.000 OA
ATOM     15  C   UNL     1     109.034 105.856 102.149  0.00  0.00    +0.000 C 
ATOM     16  C   UNL     1     107.957 105.655 103.207  0.00  0.00    +0.000 C 
ENDBRANCH   9  10
ENDBRANCH   1   9
TORSDOF 6
ENDMDL
MODEL 9
REMARK VINA RESULT:      -4.6     33.190     34.551
REMARK  Name = 
REMARK  6 active torsions:
REMARK  status: ('A' for Active; 'I' for Inactive)
REMARK    1  A    between atoms: C_2  and  O_3
REMARK    2  A    between atoms: C_2  and  C_4
REMARK    3  A    between atoms: C_4  and  C_5
REMARK    4  A    between atoms: C_4  and  C_7
REMARK    5  A    between atoms: C_5  and  O_6
REMARK    6  A    between atoms: C_7  and  C_8
REMARK                            x       y       z     vdW  Elec       q    Type
REMARK                         _______ _______ _______ _____ _____    ______ ____
ROOT
ATOM      1  C   UNL     1      99.848 101.926  78.535  0.00  0.00    +0.000 C 
ENDROOT
BRANCH   1   3
ATOM      2  O   UNL     1      99.701  99.537  78.879  0.00  0.00    +0.000 OA
ATOM      3  C   UNL     1      99.192 100.645  79.006  0.00  0.00    +0.000 C 
BRANCH   3   4
ATOM      4  O   UNL     1      98.000 100.815  79.614  0.00  0.00    +0.000 OA
ATOM      5  H   UNL     1      97.435 100.021  79.655  0.00  0.00    +0.000 HD
ENDBRANCH   3   4
ENDBRANCH   1   3
BRANCH   1   6
ATOM      6  C   UNL     1      99.226 102.302  77.186  0.00  0.00    +0.000 C 
BRANCH   6   7
ATOM      7  O   UNL     1      98.124 101.476  76.835  0.00  0.00    +0.000 OA
ATOM      8  H   UNL     1      97.327 101.829  77.282  0.00  0.00    +0.000 HD
ENDBRANCH   6   7
ENDBRANCH   1   6
BRANCH   1   9
ATOM      9  C   UNL     1      99.696 103.046  79.579  0.00  0.00    +0.000 C 
BRANCH   9  10
ATOM     10  C   UNL     1     101.025 103.645  80.119  0.00  0.00    +0.000 C 
ATOM     11  C   UNL     1     101.747 104.396  78.976  0.00  0.00    +0.000 C 
ATOM     12  C   UNL     1     102.880 105.297  79.468  0.00  0.00    +0.000 C 
ATOM     13  C   UNL     1     104.213 104.589  79.698  0.00  0.00    +0.000 C 
ATOM     14  O   UNL     1     104.126 103.256  80.175  0.00  0.00    +0.000 OA
ATOM     15  C   UNL     1     103.253 103.077  81.278  0.00  0.00    +0.000 C 
ATOM     16  C   UNL     1     101.911 102.567  80.770  0.00  0.00    +0.000 C 
ENDBRANCH   9  10
ENDBRANCH   1   9
TORSDOF 6
ENDMDL
