MODEL 1
REMARK VINA RESULT:      -5.3      0.000      0.000
REMARK  Name = 
REMARK  6 active torsions:
REMARK  status: ('A' for Active; 'I' for Inactive)
REMARK    1  A    between atoms: O_1  and  C_2
REMARK    2  A    between atoms: C_2  and  C_3
REMARK    3  A    between atoms: C_3  and  C_4
REMARK    4  A    between atoms: C_4  and  C_5
REMARK    5  A    between atoms: C_12  and  O_13
REMARK    6  A    between atoms: C_12  and  O_14
REMARK                            x       y       z     vdW  Elec       q    Type
REMARK                         _______ _______ _______ _____ _____    ______ ____
ROOT
ATOM      1  C   UNL     1     111.832  76.244  83.169  0.00  0.00    +0.000 C 
ATOM      2  C   UNL     1     110.608  76.479  83.697  0.00  0.00    +0.000 C 
ENDROOT
BRANCH   2   3
ATOM      3  O   UNL     1     110.423  76.763  85.027  0.00  0.00    +0.000 OA
ATOM      4  H   UNL     1     109.578  76.340  85.294  0.00  0.00    +0.000 HD
ENDBRANCH   2   3
BRANCH   2   5
ATOM      5  O   UNL     1     109.448  76.457  82.965  0.00  0.00    +0.000 OA
ATOM      6  H   UNL     1     108.713  76.788  83.497  0.00  0.00    +0.000 HD
ENDBRANCH   2   5
BRANCH   1   7
ATOM      7  C   UNL     1     113.126  76.297  83.969  0.00  0.00    +0.000 C 
BRANCH   7   8
ATOM      8  O   UNL     1     113.311  77.555  84.613  0.00  0.00    +0.000 OA
ATOM      9  H   UNL     1     112.423  77.945  84.708  0.00  0.00    +0.000 HD
ENDBRANCH   7   8
ENDBRANCH   1   7
BRANCH   1  10
ATOM     10  C   UNL     1     112.052  75.970  81.682  0.00  0.00    +0.000 C 
BRANCH  10  11
ATOM     11  C   UNL     1     112.595  74.557  81.340  0.00  0.00    +0.000 C 
ATOM     12  C   UNL     1     112.441  74.226  79.842  0.00  0.00    +0.000 C 
ATOM     13  C   UNL     1     113.250  73.008  79.405  0.00  0.00    +0.000 C 
ATOM     14  C   UNL     1     112.561  71.669  79.632  0.00  0.00    +0.000 C 
ATOM     15  O   UNL     1     111.742  71.597  80.788  0.00  0.00    +0.000 OA
ATOM     16  C   UNL     1     112.347  72.069  81.983  0.00  0.00    +0.000 C 
ATOM     17  C   UNL     1     111.900  73.507  82.237  0.00  0.00    +0.000 C 
ENDBRANCH  10  11
ENDBRANCH   1  10
TORSDOF 6
ENDMDL
MODEL 2
REMARK VINA RESULT:      -5.2      1.036      1.773
REMARK  Name = 
REMARK  6 active torsions:
REMARK  status: ('A' for Active; 'I' for Inactive)
REMARK    1  A    between atoms: O_1  and  C_2
REMARK    2  A    between atoms: C_2  and  C_3
REMARK    3  A    between atoms: C_3  and  C_4
REMARK    4  A    between atoms: C_4  and  C_5
REMARK    5  A    between atoms: C_12  and  O_13
REMARK    6  A    between atoms: C_12  and  O_14
REMARK                            x       y       z     vdW  Elec       q    Type
REMARK                         _______ _______ _______ _____ _____    ______ ____
ROOT
ATOM      1  C   UNL     1     111.892  76.222  83.470  0.00  0.00    +0.000 C 
ATOM      2  C   UNL     1     110.616  76.432  83.869  0.00  0.00    +0.000 C 
ENDROOT
BRANCH   2   3
ATOM      3  O   UNL     1     110.272  76.567  85.190  0.00  0.00    +0.000 OA
ATOM      4  H   UNL     1     110.961  77.129  85.608  0.00  0.00    +0.000 HD
ENDBRANCH   2   3
BRANCH   2   5
ATOM      5  O   UNL     1     109.556  76.529  83.003  0.00  0.00    +0.000 OA
ATOM      6  H   UNL     1     109.475  77.435  82.678  0.00  0.00    +0.000 HD
ENDBRANCH   2   5
BRANCH   1   7
ATOM      7  C   UNL     1     113.077  76.142  84.421  0.00  0.00    +0.000 C 
BRANCH   7   8
ATOM      8  O   UNL     1     112.892  75.154  85.431  0.00  0.00    +0.000 OA
ATOM      9  H   UNL     1     112.116  75.435  85.949  0.00  0.00    +0.000 HD
ENDBRANCH   7   8
ENDBRANCH   1   7
BRANCH   1  10
ATOM     10  C   UNL     1     112.292  76.113  81.999  0.00  0.00    +0.000 C 
BRANCH  10  11
ATOM     11  C   UNL     1     112.017  74.737  81.335  0.00  0.00    +0.000 C 
ATOM     12  C   UNL     1     112.553  73.569  82.186  0.00  0.00    +0.000 C 
ATOM     13  C   UNL     1     112.020  72.207  81.749  0.00  0.00    +0.000 C 
ATOM     14  C   UNL     1     112.793  71.554  80.610  0.00  0.00    +0.000 C 
ATOM     15  O   UNL     1     113.322  72.450  79.645  0.00  0.00    +0.000 OA
ATOM     16  C   UNL     1     112.404  73.415  79.153  0.00  0.00    +0.000 C 
ATOM     17  C   UNL     1     112.603  74.727  79.905  0.00  0.00    +0.000 C 
ENDBRANCH  10  11
ENDBRANCH   1  10
TORSDOF 6
ENDMDL
MODEL 3
REMARK VINA RESULT:      -5.0      2.903      5.816
REMARK  Name = 
REMARK  6 active torsions:
REMARK  status: ('A' for Active; 'I' for Inactive)
REMARK    1  A    between atoms: O_1  and  C_2
REMARK    2  A    between atoms: C_2  and  C_3
REMARK    3  A    between atoms: C_3  and  C_4
REMARK    4  A    between atoms: C_4  and  C_5
REMARK    5  A    between atoms: C_12  and  O_13
REMARK    6  A    between atoms: C_12  and  O_14
REMARK                            x       y       z     vdW  Elec       q    Type
REMARK                         _______ _______ _______ _____ _____    ______ ____
ROOT
ATOM      1  C   UNL     1     111.162  72.471  77.679  0.00  0.00    +0.000 C 
ATOM      2  C   UNL     1     109.877  72.865  77.519  0.00  0.00    +0.000 C 
ENDROOT
BRANCH   2   3
ATOM      3  O   UNL     1     109.436  73.490  76.381  0.00  0.00    +0.000 OA
ATOM      4  H   UNL     1     108.717  72.932  76.010  0.00  0.00    +0.000 HD
ENDBRANCH   2   3
BRANCH   2   5
ATOM      5  O   UNL     1     108.903  72.681  78.468  0.00  0.00    +0.000 OA
ATOM      6  H   UNL     1     108.884  71.758  78.750  0.00  0.00    +0.000 HD
ENDBRANCH   2   5
BRANCH   1   7
ATOM      7  C   UNL     1     112.241  72.645  76.620  0.00  0.00    +0.000 C 
BRANCH   7   8
ATOM      8  O   UNL     1     111.762  72.355  75.310  0.00  0.00    +0.000 OA
ATOM      9  H   UNL     1     112.148  73.029  74.723  0.00  0.00    +0.000 HD
ENDBRANCH   7   8
ENDBRANCH   1   7
BRANCH   1  10
ATOM     10  C   UNL     1     111.653  71.737  78.926  0.00  0.00    +0.000 C 
BRANCH  10  11
ATOM     11  C   UNL     1     111.648  72.572  80.235  0.00  0.00    +0.000 C 
ATOM     12  C   UNL     1     112.363  73.926  80.058  0.00  0.00    +0.000 C 
ATOM     13  C   UNL     1     112.095  74.906  81.197  0.00  0.00    +0.000 C 
ATOM     14  C   UNL     1     113.003  74.739  82.409  0.00  0.00    +0.000 C 
ATOM     15  O   UNL     1     113.388  73.404  82.699  0.00  0.00    +0.000 OA
ATOM     16  C   UNL     1     112.324  72.463  82.723  0.00  0.00    +0.000 C 
ATOM     17  C   UNL     1     112.264  71.739  81.381  0.00  0.00    +0.000 C 
ENDBRANCH  10  11
ENDBRANCH   1  10
TORSDOF 6
ENDMDL
MODEL 4
REMARK VINA RESULT:      -5.0      1.469      2.749
REMARK  Name = 
REMARK  6 active torsions:
REMARK  status: ('A' for Active; 'I' for Inactive)
REMARK    1  A    between atoms: O_1  and  C_2
REMARK    2  A    between atoms: C_2  and  C_3
REMARK    3  A    between atoms: C_3  and  C_4
REMARK    4  A    between atoms: C_4  and  C_5
REMARK    5  A    between atoms: C_12  and  O_13
REMARK    6  A    between atoms: C_12  and  O_14
REMARK                            x       y       z     vdW  Elec       q    Type
REMARK                         _______ _______ _______ _____ _____    ______ ____
ROOT
ATOM      1  C   UNL     1     111.896  75.728  84.370  0.00  0.00    +0.000 C 
ATOM      2  C   UNL     1     112.654  75.342  85.423  0.00  0.00    +0.000 C 
ENDROOT
BRANCH   2   3
ATOM      3  O   UNL     1     112.163  75.294  86.703  0.00  0.00    +0.000 OA
ATOM      4  H   UNL     1     111.380  74.701  86.686  0.00  0.00    +0.000 HD
ENDBRANCH   2   3
BRANCH   2   5
ATOM      5  O   UNL     1     113.970  74.968  85.314  0.00  0.00    +0.000 OA
ATOM      6  H   UNL     1     114.466  75.636  84.825  0.00  0.00    +0.000 HD
ENDBRANCH   2   5
BRANCH   1   7
ATOM      7  C   UNL     1     110.428  76.116  84.477  0.00  0.00    +0.000 C 
BRANCH   7   8
ATOM      8  O   UNL     1     109.894  76.557  83.232  0.00  0.00    +0.000 OA
ATOM      9  H   UNL     1     109.562  75.761  82.780  0.00  0.00    +0.000 HD
ENDBRANCH   7   8
ENDBRANCH   1   7
BRANCH   1  10
ATOM     10  C   UNL     1     112.420  75.744  82.935  0.00  0.00    +0.000 C 
BRANCH  10  11
ATOM     11  C   UNL     1     112.036  74.511  82.073  0.00  0.00    +0.000 C 
ATOM     12  C   UNL     1     112.770  73.235  82.531  0.00  0.00    +0.000 C 
ATOM     13  C   UNL     1     112.184  71.955  81.942  0.00  0.00    +0.000 C 
ATOM     14  C   UNL     1     112.702  71.593  80.557  0.00  0.00    +0.000 C 
ATOM     15  O   UNL     1     112.988  72.695  79.709  0.00  0.00    +0.000 OA
ATOM     16  C   UNL     1     111.964  73.676  79.632  0.00  0.00    +0.000 C 
ATOM     17  C   UNL     1     112.296  74.824  80.581  0.00  0.00    +0.000 C 
ENDBRANCH  10  11
ENDBRANCH   1  10
TORSDOF 6
ENDMDL
MODEL 5
REMARK VINA RESULT:      -5.0     16.628     18.040
REMARK  Name = 
REMARK  6 active torsions:
REMARK  status: ('A' for Active; 'I' for Inactive)
REMARK    1  A    between atoms: O_1  and  C_2
REMARK    2  A    between atoms: C_2  and  C_3
REMARK    3  A    between atoms: C_3  and  C_4
REMARK    4  A    between atoms: C_4  and  C_5
REMARK    5  A    between atoms: C_12  and  O_13
REMARK    6  A    between atoms: C_12  and  O_14
REMARK                            x       y       z     vdW  Elec       q    Type
REMARK                         _______ _______ _______ _____ _____    ______ ____
ROOT
ATOM      1  C   UNL     1     110.338  76.030  98.800  0.00  0.00    +0.000 C 
ATOM      2  C   UNL     1     111.381  75.378  99.366  0.00  0.00    +0.000 C 
ENDROOT
BRANCH   2   3
ATOM      3  O   UNL     1     112.490  76.034  99.836  0.00  0.00    +0.000 OA
ATOM      4  H   UNL     1     112.839  75.504 100.585  0.00  0.00    +0.000 HD
ENDBRANCH   2   3
BRANCH   2   5
ATOM      5  O   UNL     1     111.430  74.016  99.522  0.00  0.00    +0.000 OA
ATOM      6  H   UNL     1     112.256  73.761  99.953  0.00  0.00    +0.000 HD
ENDBRANCH   2   5
BRANCH   1   7
ATOM      7  C   UNL     1     110.264  77.542  98.650  0.00  0.00    +0.000 C 
BRANCH   7   8
ATOM      8  O   UNL     1     111.469  78.093  98.125  0.00  0.00    +0.000 OA
ATOM      9  H   UNL     1     111.409  79.056  98.258  0.00  0.00    +0.000 HD
ENDBRANCH   7   8
ENDBRANCH   1   7
BRANCH   1  10
ATOM     10  C   UNL     1     109.080  75.313  98.313  0.00  0.00    +0.000 C 
BRANCH  10  11
ATOM     11  C   UNL     1     108.124  74.816  99.431  0.00  0.00    +0.000 C 
ATOM     12  C   UNL     1     108.023  73.278  99.463  0.00  0.00    +0.000 C 
ATOM     13  C   UNL     1     107.372  72.740 100.734  0.00  0.00    +0.000 C 
ATOM     14  C   UNL     1     105.849  72.704 100.705  0.00  0.00    +0.000 C 
ATOM     15  O   UNL     1     105.231  73.759  99.984  0.00  0.00    +0.000 OA
ATOM     16  C   UNL     1     105.706  75.060 100.299  0.00  0.00    +0.000 C 
ATOM     17  C   UNL     1     106.740  75.482  99.258  0.00  0.00    +0.000 C 
ENDBRANCH  10  11
ENDBRANCH   1  10
TORSDOF 6
ENDMDL
MODEL 6
REMARK VINA RESULT:      -4.9     16.176     18.484
REMARK  Name = 
REMARK  6 active torsions:
REMARK  status: ('A' for Active; 'I' for Inactive)
REMARK    1  A    between atoms: O_1  and  C_2
REMARK    2  A    between atoms: C_2  and  C_3
REMARK    3  A    between atoms: C_3  and  C_4
REMARK    4  A    between atoms: C_4  and  C_5
REMARK    5  A    between atoms: C_12  and  O_13
REMARK    6  A    between atoms: C_12  and  O_14
REMARK                            x       y       z     vdW  Elec       q    Type
REMARK                         _______ _______ _______ _____ _____    ______ ____
ROOT
ATOM      1  C   UNL     1     107.787  74.689  98.686  0.00  0.00    +0.000 C 
ATOM      2  C   UNL     1     107.817  73.630  97.843  0.00  0.00    +0.000 C 
ENDROOT
BRANCH   2   3
ATOM      3  O   UNL     1     108.442  73.679  96.623  0.00  0.00    +0.000 OA
ATOM      4  H   UNL     1     109.336  73.290  96.744  0.00  0.00    +0.000 HD
ENDBRANCH   2   3
BRANCH   2   5
ATOM      5  O   UNL     1     107.234  72.420  98.123  0.00  0.00    +0.000 OA
ATOM      6  H   UNL     1     107.457  72.143  99.021  0.00  0.00    +0.000 HD
ENDBRANCH   2   5
BRANCH   1   7
ATOM      7  C   UNL     1     108.457  76.024  98.395  0.00  0.00    +0.000 C 
BRANCH   7   8
ATOM      8  O   UNL     1     109.878  75.916  98.353  0.00  0.00    +0.000 OA
ATOM      9  H   UNL     1     110.074  75.057  97.937  0.00  0.00    +0.000 HD
ENDBRANCH   7   8
ENDBRANCH   1   7
BRANCH   1  10
ATOM     10  C   UNL     1     107.132  74.630 100.064  0.00  0.00    +0.000 C 
BRANCH  10  11
ATOM     11  C   UNL     1     105.717  75.263 100.155  0.00  0.00    +0.000 C 
ATOM     12  C   UNL     1     104.681  74.281 100.737  0.00  0.00    +0.000 C 
ATOM     13  C   UNL     1     103.375  74.953 101.152  0.00  0.00    +0.000 C 
ATOM     14  C   UNL     1     102.366  75.138 100.025  0.00  0.00    +0.000 C 
ATOM     15  O   UNL     1     102.926  75.405  98.748  0.00  0.00    +0.000 OA
ATOM     16  C   UNL     1     103.911  76.428  98.726  0.00  0.00    +0.000 C 
ATOM     17  C   UNL     1     105.297  75.790  98.764  0.00  0.00    +0.000 C 
ENDBRANCH  10  11
ENDBRANCH   1  10
TORSDOF 6
ENDMDL
MODEL 7
REMARK VINA RESULT:      -4.8     16.691     18.601
REMARK  Name = 
REMARK  6 active torsions:
REMARK  status: ('A' for Active; 'I' for Inactive)
REMARK    1  A    between atoms: O_1  and  C_2
REMARK    2  A    between atoms: C_2  and  C_3
REMARK    3  A    between atoms: C_3  and  C_4
REMARK    4  A    between atoms: C_4  and  C_5
REMARK    5  A    between atoms: C_12  and  O_13
REMARK    6  A    between atoms: C_12  and  O_14
REMARK                            x       y       z     vdW  Elec       q    Type
REMARK                         _______ _______ _______ _____ _____    ______ ____
ROOT
ATOM      1  C   UNL     1     108.153  74.806  98.511  0.00  0.00    +0.000 C 
ATOM      2  C   UNL     1     109.083  75.786  98.434  0.00  0.00    +0.000 C 
ENDROOT
BRANCH   2   3
ATOM      3  O   UNL     1     110.389  75.593  98.809  0.00  0.00    +0.000 OA
ATOM      4  H   UNL     1     110.496  74.632  98.982  0.00  0.00    +0.000 HD
ENDBRANCH   2   3
BRANCH   2   5
ATOM      5  O   UNL     1     108.816  77.053  97.978  0.00  0.00    +0.000 OA
ATOM      6  H   UNL     1     108.941  77.096  97.022  0.00  0.00    +0.000 HD
ENDBRANCH   2   5
BRANCH   1   7
ATOM      7  C   UNL     1     108.449  73.392  98.987  0.00  0.00    +0.000 C 
BRANCH   7   8
ATOM      8  O   UNL     1     107.691  72.415  98.279  0.00  0.00    +0.000 OA
ATOM      9  H   UNL     1     108.336  71.862  97.802  0.00  0.00    +0.000 HD
ENDBRANCH   7   8
ENDBRANCH   1   7
BRANCH   1  10
ATOM     10  C   UNL     1     106.708  75.000  98.056  0.00  0.00    +0.000 C 
BRANCH  10  11
ATOM     11  C   UNL     1     105.723  75.483  99.155  0.00  0.00    +0.000 C 
ATOM     12  C   UNL     1     105.383  74.362 100.157  0.00  0.00    +0.000 C 
ATOM     13  C   UNL     1     104.698  74.869 101.423  0.00  0.00    +0.000 C 
ATOM     14  C   UNL     1     103.189  75.039 101.308  0.00  0.00    +0.000 C 
ATOM     15  O   UNL     1     102.721  75.455 100.035  0.00  0.00    +0.000 OA
ATOM     16  C   UNL     1     103.404  76.569  99.477  0.00  0.00    +0.000 C 
ATOM     17  C   UNL     1     104.456  76.069  98.491  0.00  0.00    +0.000 C 
ENDBRANCH  10  11
ENDBRANCH   1  10
TORSDOF 6
ENDMDL
MODEL 8
REMARK VINA RESULT:      -4.8      1.090      2.420
REMARK  Name = 
REMARK  6 active torsions:
REMARK  status: ('A' for Active; 'I' for Inactive)
REMARK    1  A    between atoms: O_1  and  C_2
REMARK    2  A    between atoms: C_2  and  C_3
REMARK    3  A    between atoms: C_3  and  C_4
REMARK    4  A    between atoms: C_4  and  C_5
REMARK    5  A    between atoms: C_12  and  O_13
REMARK    6  A    between atoms: C_12  and  O_14
REMARK                            x       y       z     vdW  Elec       q    Type
REMARK                         _______ _______ _______ _____ _____    ______ ____
ROOT
ATOM      1  C   UNL     1     112.141  75.557  83.920  0.00  0.00    +0.000 C 
ATOM      2  C   UNL     1     113.266  76.237  84.242  0.00  0.00    +0.000 C 
ENDROOT
BRANCH   2   3
ATOM      3  O   UNL     1     113.270  77.591  84.461  0.00  0.00    +0.000 OA
ATOM      4  H   UNL     1     112.586  77.977  83.871  0.00  0.00    +0.000 HD
ENDBRANCH   2   3
BRANCH   2   5
ATOM      5  O   UNL     1     114.497  75.646  84.379  0.00  0.00    +0.000 OA
ATOM      6  H   UNL     1     115.162  76.311  84.600  0.00  0.00    +0.000 HD
ENDBRANCH   2   5
BRANCH   1   7
ATOM      7  C   UNL     1     110.768  76.200  83.795  0.00  0.00    +0.000 C 
BRANCH   7   8
ATOM      8  O   UNL     1     110.354  76.829  85.006  0.00  0.00    +0.000 OA
ATOM      9  H   UNL     1     110.026  77.712  84.756  0.00  0.00    +0.000 HD
ENDBRANCH   7   8
ENDBRANCH   1   7
BRANCH   1  10
ATOM     10  C   UNL     1     112.119  74.043  83.716  0.00  0.00    +0.000 C 
BRANCH  10  11
ATOM     11  C   UNL     1     112.563  73.555  82.311  0.00  0.00    +0.000 C 
ATOM     12  C   UNL     1     111.603  74.034  81.204  0.00  0.00    +0.000 C 
ATOM     13  C   UNL     1     112.170  73.867  79.797  0.00  0.00    +0.000 C 
ATOM     14  C   UNL     1     111.967  72.486  79.186  0.00  0.00    +0.000 C 
ATOM     15  O   UNL     1     112.018  71.405  80.104  0.00  0.00    +0.000 OA
ATOM     16  C   UNL     1     113.133  71.416  80.984  0.00  0.00    +0.000 C 
ATOM     17  C   UNL     1     112.709  72.016  82.322  0.00  0.00    +0.000 C 
ENDBRANCH  10  11
ENDBRANCH   1  10
TORSDOF 6
ENDMDL
MODEL 9
REMARK VINA RESULT:      -4.7      2.215      2.885
REMARK  Name = 
REMARK  6 active torsions:
REMARK  status: ('A' for Active; 'I' for Inactive)
REMARK    1  A    between atoms: O_1  and  C_2
REMARK    2  A    between atoms: C_2  and  C_3
REMARK    3  A    between atoms: C_3  and  C_4
REMARK    4  A    between atoms: C_4  and  C_5
REMARK    5  A    between atoms: C_12  and  O_13
REMARK    6  A    between atoms: C_12  and  O_14
REMARK                            x       y       z     vdW  Elec       q    Type
REMARK                         _______ _______ _______ _____ _____    ______ ____
ROOT
ATOM      1  C   UNL     1     112.246  75.035  84.010  0.00  0.00    +0.000 C 
ATOM      2  C   UNL     1     111.688  75.506  85.150  0.00  0.00    +0.000 C 
ENDROOT
BRANCH   2   3
ATOM      3  O   UNL     1     112.233  75.271  86.387  0.00  0.00    +0.000 OA
ATOM      4  H   UNL     1     111.930  75.997  86.975  0.00  0.00    +0.000 HD
ENDBRANCH   2   3
BRANCH   2   5
ATOM      5  O   UNL     1     110.538  76.254  85.180  0.00  0.00    +0.000 OA
ATOM      6  H   UNL     1     109.774  75.696  84.989  0.00  0.00    +0.000 HD
ENDBRANCH   2   5
BRANCH   1   7
ATOM      7  C   UNL     1     113.536  74.230  83.967  0.00  0.00    +0.000 C 
BRANCH   7   8
ATOM      8  O   UNL     1     114.460  74.637  84.973  0.00  0.00    +0.000 OA
ATOM      9  H   UNL     1     114.195  74.175  85.789  0.00  0.00    +0.000 HD
ENDBRANCH   7   8
ENDBRANCH   1   7
BRANCH   1  10
ATOM     10  C   UNL     1     111.670  75.328  82.626  0.00  0.00    +0.000 C 
BRANCH  10  11
ATOM     11  C   UNL     1     112.691  75.280  81.457  0.00  0.00    +0.000 C 
ATOM     12  C   UNL     1     112.828  76.645  80.754  0.00  0.00    +0.000 C 
ATOM     13  C   UNL     1     114.044  76.733  79.835  0.00  0.00    +0.000 C 
ATOM     14  C   UNL     1     113.824  76.185  78.431  0.00  0.00    +0.000 C 
ATOM     15  O   UNL     1     112.951  75.068  78.346  0.00  0.00    +0.000 OA
ATOM     16  C   UNL     1     113.223  74.022  79.268  0.00  0.00    +0.000 C 
ATOM     17  C   UNL     1     112.294  74.159  80.471  0.00  0.00    +0.000 C 
ENDBRANCH  10  11
ENDBRANCH   1  10
TORSDOF 6
ENDMDL
