MODEL 1
REMARK VINA RESULT:      -5.1      0.000      0.000
REMARK  Name = 
REMARK  10 active torsions:
REMARK  status: ('A' for Active; 'I' for Inactive)
REMARK    1  A    between atoms: CA_2  and  C_3
REMARK    2  A    between atoms: CA_2  and  C_11
REMARK    3  A    between atoms: C_3  and  C_4
REMARK    4  A    between atoms: C_4  and  S_5
REMARK    5  A    between atoms: C_6  and  O_7
REMARK    6  A    between atoms: C_6  and  C_8
REMARK    7  A    between atoms: C_8  and  O_9
REMARK    8  A    between atoms: C_8  and  O_10
REMARK    9  A    between atoms: C_11  and  O_12
REMARK   10  A    between atoms: C_11  and  OXT_13
REMARK                            x       y       z     vdW  Elec       q    Type
REMARK                         _______ _______ _______ _____ _____    ______ ____
ROOT
ATOM      1  C   UNL     1      99.238 102.844  78.807  0.00  0.00    +0.000 C 
ATOM      2  C   UNL     1      99.032 101.500  78.777  0.00  0.00    +0.000 C 
ENDROOT
BRANCH   1   4
ATOM      3  N   UNL     1      97.262 104.184  78.226  0.00  0.00    +0.000 NA
ATOM      4  CA  UNL     1      98.400 103.666  77.856  0.00  0.00    +0.000 C 
ATOM      5  H   UNL     1      97.103 103.993  79.226  0.00  0.00    +0.000 HD
BRANCH   4   6
ATOM      6  C   UNL     1      98.908 104.099  76.430  0.00  0.00    +0.000 C 
BRANCH   6   7
ATOM      7  O   UNL     1      98.623 103.065  75.511  0.00  0.00    +0.000 OA
ATOM      8  H   UNL     1      98.807 103.451  74.636  0.00  0.00    +0.000 HD
ENDBRANCH   6   7
BRANCH   6   9
ATOM      9  OXT UNL     1      98.600 105.306  75.809  0.00  0.00    +0.000 OA
ATOM     10  HXT UNL     1      97.722 105.558  76.140  0.00  0.00    +0.000 HD
ENDBRANCH   6   9
ENDBRANCH   4   6
ENDBRANCH   1   4
BRANCH   2  11
ATOM     11  O   UNL     1      98.074 100.928  77.960  0.00  0.00    +0.000 OA
ATOM     12  H   UNL     1      97.297 101.529  78.002  0.00  0.00    +0.000 HD
ENDBRANCH   2  11
BRANCH   1  13
ATOM     13  C   UNL     1     100.324 103.372  79.709  0.00  0.00    +0.000 C 
BRANCH  13  14
ATOM     14  S   UNL     1     101.683 104.334  79.084  0.00  0.00    +0.000 S 
ATOM     15  H   UNL     1     102.579 103.341  79.019  0.00  0.00    +0.000 HD
ENDBRANCH  13  14
ENDBRANCH   1  13
BRANCH   2  16
ATOM     16  C   UNL     1      99.837 100.484  79.581  0.00  0.00    +0.000 C 
BRANCH  16  17
ATOM     17  O   UNL     1      99.170 100.310  80.810  0.00  0.00    +0.000 OA
ATOM     18  H   UNL     1      99.518  99.475  81.167  0.00  0.00    +0.000 HD
ENDBRANCH  16  17
BRANCH  16  19
ATOM     19  O   UNL     1      99.873  99.239  78.918  0.00  0.00    +0.000 OA
ATOM     20  H   UNL     1     100.457  99.353  78.147  0.00  0.00    +0.000 HD
ENDBRANCH  16  19
ENDBRANCH   2  16
TORSDOF 10
ENDMDL
MODEL 2
REMARK VINA RESULT:      -5.0     33.748     35.108
REMARK  Name = 
REMARK  10 active torsions:
REMARK  status: ('A' for Active; 'I' for Inactive)
REMARK    1  A    between atoms: CA_2  and  C_3
REMARK    2  A    between atoms: CA_2  and  C_11
REMARK    3  A    between atoms: C_3  and  C_4
REMARK    4  A    between atoms: C_4  and  S_5
REMARK    5  A    between atoms: C_6  and  O_7
REMARK    6  A    between atoms: C_6  and  C_8
REMARK    7  A    between atoms: C_8  and  O_9
REMARK    8  A    between atoms: C_8  and  O_10
REMARK    9  A    between atoms: C_11  and  O_12
REMARK   10  A    between atoms: C_11  and  OXT_13
REMARK                            x       y       z     vdW  Elec       q    Type
REMARK                         _______ _______ _______ _____ _____    ______ ____
ROOT
ATOM      1  C   UNL     1     106.082  75.293  99.051  0.00  0.00    +0.000 C 
ATOM      2  C   UNL     1     105.098  76.003  98.437  0.00  0.00    +0.000 C 
ENDROOT
BRANCH   1   4
ATOM      3  N   UNL     1     108.262  75.742  98.011  0.00  0.00    +0.000 NA
ATOM      4  CA  UNL     1     107.267  74.919  98.191  0.00  0.00    +0.000 C 
ATOM      5  H   UNL     1     108.119  76.589  98.578  0.00  0.00    +0.000 HD
BRANCH   4   6
ATOM      6  C   UNL     1     107.470  73.473  97.603  0.00  0.00    +0.000 C 
BRANCH   6   7
ATOM      7  O   UNL     1     108.408  73.537  96.549  0.00  0.00    +0.000 OA
ATOM      8  H   UNL     1     108.314  74.435  96.185  0.00  0.00    +0.000 HD
ENDBRANCH   6   7
BRANCH   6   9
ATOM      9  OXT UNL     1     107.767  72.341  98.356  0.00  0.00    +0.000 OA
ATOM     10  HXT UNL     1     108.437  71.853  97.849  0.00  0.00    +0.000 HD
ENDBRANCH   6   9
ENDBRANCH   4   6
ENDBRANCH   1   4
BRANCH   2  11
ATOM     11  O   UNL     1     105.204  76.405  97.118  0.00  0.00    +0.000 OA
ATOM     12  H   UNL     1     105.890  75.825  96.718  0.00  0.00    +0.000 HD
ENDBRANCH   2  11
BRANCH   1  13
ATOM     13  C   UNL     1     105.864  74.877 100.483  0.00  0.00    +0.000 C 
BRANCH  13  14
ATOM     14  S   UNL     1     105.399  73.217 100.922  0.00  0.00    +0.000 S 
ATOM     15  H   UNL     1     106.556  72.863 101.496  0.00  0.00    +0.000 HD
ENDBRANCH  13  14
ENDBRANCH   1  13
BRANCH   2  16
ATOM     16  C   UNL     1     103.778  76.396  99.092  0.00  0.00    +0.000 C 
BRANCH  16  17
ATOM     17  O   UNL     1     103.383  77.622  98.519  0.00  0.00    +0.000 OA
ATOM     18  H   UNL     1     103.688  77.576  97.597  0.00  0.00    +0.000 HD
ENDBRANCH  16  17
BRANCH  16  19
ATOM     19  O   UNL     1     102.780  75.438  98.816  0.00  0.00    +0.000 OA
ATOM     20  H   UNL     1     103.218  74.714  98.335  0.00  0.00    +0.000 HD
ENDBRANCH  16  19
ENDBRANCH   2  16
TORSDOF 10
ENDMDL
MODEL 3
REMARK VINA RESULT:      -4.7      7.247      8.688
REMARK  Name = 
REMARK  10 active torsions:
REMARK  status: ('A' for Active; 'I' for Inactive)
REMARK    1  A    between atoms: CA_2  and  C_3
REMARK    2  A    between atoms: CA_2  and  C_11
REMARK    3  A    between atoms: C_3  and  C_4
REMARK    4  A    between atoms: C_4  and  S_5
REMARK    5  A    between atoms: C_6  and  O_7
REMARK    6  A    between atoms: C_6  and  C_8
REMARK    7  A    between atoms: C_8  and  O_9
REMARK    8  A    between atoms: C_8  and  O_10
REMARK    9  A    between atoms: C_11  and  O_12
REMARK   10  A    between atoms: C_11  and  OXT_13
REMARK                            x       y       z     vdW  Elec       q    Type
REMARK                         _______ _______ _______ _____ _____    ______ ____
ROOT
ATOM      1  C   UNL     1     104.522 108.329  79.276  0.00  0.00    +0.000 C 
ATOM      2  C   UNL     1     105.051 108.337  78.023  0.00  0.00    +0.000 C 
ENDROOT
BRANCH   1   4
ATOM      3  N   UNL     1     102.961 106.440  79.093  0.00  0.00    +0.000 NA
ATOM      4  CA  UNL     1     103.161 107.687  79.418  0.00  0.00    +0.000 C 
ATOM      5  H   UNL     1     103.852 106.007  78.814  0.00  0.00    +0.000 HD
BRANCH   4   6
ATOM      6  C   UNL     1     101.948 108.406  80.118  0.00  0.00    +0.000 C 
BRANCH   6   7
ATOM      7  O   UNL     1     102.024 108.177  81.510  0.00  0.00    +0.000 OA
ATOM      8  H   UNL     1     101.322 108.731  81.893  0.00  0.00    +0.000 HD
ENDBRANCH   6   7
BRANCH   6   9
ATOM      9  OXT UNL     1     101.600 109.741  79.934  0.00  0.00    +0.000 OA
ATOM     10  HXT UNL     1     102.117 110.242  80.587  0.00  0.00    +0.000 HD
ENDBRANCH   6   9
ENDBRANCH   4   6
ENDBRANCH   1   4
BRANCH   2  11
ATOM     11  O   UNL     1     104.404 107.744  76.955  0.00  0.00    +0.000 OA
ATOM     12  H   UNL     1     105.079 107.181  76.514  0.00  0.00    +0.000 HD
ENDBRANCH   2  11
BRANCH   1  13
ATOM     13  C   UNL     1     105.288 109.025  80.371  0.00  0.00    +0.000 C 
BRANCH  13  14
ATOM     14  S   UNL     1     105.620 108.242  81.933  0.00  0.00    +0.000 S 
ATOM     15  H   UNL     1     105.701 109.358  82.669  0.00  0.00    +0.000 HD
ENDBRANCH  13  14
ENDBRANCH   1  13
BRANCH   2  16
ATOM     16  C   UNL     1     106.362 109.018  77.643  0.00  0.00    +0.000 C 
BRANCH  16  17
ATOM     17  O   UNL     1     107.242 108.005  77.212  0.00  0.00    +0.000 OA
ATOM     18  H   UNL     1     107.785 108.423  76.522  0.00  0.00    +0.000 HD
ENDBRANCH  16  17
BRANCH  16  19
ATOM     19  O   UNL     1     106.166 109.916  76.574  0.00  0.00    +0.000 OA
ATOM     20  H   UNL     1     105.702 109.419  75.877  0.00  0.00    +0.000 HD
ENDBRANCH  16  19
ENDBRANCH   2  16
TORSDOF 10
ENDMDL
MODEL 4
REMARK VINA RESULT:      -4.6      7.542      9.309
REMARK  Name = 
REMARK  10 active torsions:
REMARK  status: ('A' for Active; 'I' for Inactive)
REMARK    1  A    between atoms: CA_2  and  C_3
REMARK    2  A    between atoms: CA_2  and  C_11
REMARK    3  A    between atoms: C_3  and  C_4
REMARK    4  A    between atoms: C_4  and  S_5
REMARK    5  A    between atoms: C_6  and  O_7
REMARK    6  A    between atoms: C_6  and  C_8
REMARK    7  A    between atoms: C_8  and  O_9
REMARK    8  A    between atoms: C_8  and  O_10
REMARK    9  A    between atoms: C_11  and  O_12
REMARK   10  A    between atoms: C_11  and  OXT_13
REMARK                            x       y       z     vdW  Elec       q    Type
REMARK                         _______ _______ _______ _____ _____    ______ ____
ROOT
ATOM      1  C   UNL     1     105.265 108.146  79.354  0.00  0.00    +0.000 C 
ATOM      2  C   UNL     1     105.404 109.260  78.587  0.00  0.00    +0.000 C 
ENDROOT
BRANCH   1   4
ATOM      3  N   UNL     1     104.340 108.645  81.576  0.00  0.00    +0.000 NA
ATOM      4  CA  UNL     1     104.149 108.177  80.373  0.00  0.00    +0.000 C 
ATOM      5  H   UNL     1     105.297 109.017  81.656  0.00  0.00    +0.000 HD
BRANCH   4   6
ATOM      6  C   UNL     1     102.659 107.818  80.016  0.00  0.00    +0.000 C 
BRANCH   6   7
ATOM      7  O   UNL     1     101.900 109.009  79.974  0.00  0.00    +0.000 OA
ATOM      8  H   UNL     1     102.139 109.485  80.789  0.00  0.00    +0.000 HD
ENDBRANCH   6   7
BRANCH   6   9
ATOM      9  OXT UNL     1     102.266 107.035  78.935  0.00  0.00    +0.000 OA
ATOM     10  HXT UNL     1     103.045 106.509  78.692  0.00  0.00    +0.000 HD
ENDBRANCH   6   9
ENDBRANCH   4   6
ENDBRANCH   1   4
BRANCH   2  11
ATOM     11  O   UNL     1     104.540 110.334  78.698  0.00  0.00    +0.000 OA
ATOM     12  H   UNL     1     104.540 110.767  77.816  0.00  0.00    +0.000 HD
ENDBRANCH   2  11
BRANCH   1  13
ATOM     13  C   UNL     1     106.272 107.038  79.180  0.00  0.00    +0.000 C 
BRANCH  13  14
ATOM     14  S   UNL     1     107.361 106.539  80.495  0.00  0.00    +0.000 S 
ATOM     15  H   UNL     1     107.358 107.698  81.166  0.00  0.00    +0.000 HD
ENDBRANCH  13  14
ENDBRANCH   1  13
BRANCH   2  16
ATOM     16  C   UNL     1     106.521 109.475  77.571  0.00  0.00    +0.000 C 
BRANCH  16  17
ATOM     17  O   UNL     1     105.906 109.657  76.316  0.00  0.00    +0.000 OA
ATOM     18  H   UNL     1     106.509 110.242  75.825  0.00  0.00    +0.000 HD
ENDBRANCH  16  17
BRANCH  16  19
ATOM     19  O   UNL     1     107.254 110.641  77.875  0.00  0.00    +0.000 OA
ATOM     20  H   UNL     1     108.186 110.367  77.957  0.00  0.00    +0.000 HD
ENDBRANCH  16  19
ENDBRANCH   2  16
TORSDOF 10
ENDMDL
MODEL 5
REMARK VINA RESULT:      -4.4     29.555     30.682
REMARK  Name = 
REMARK  10 active torsions:
REMARK  status: ('A' for Active; 'I' for Inactive)
REMARK    1  A    between atoms: CA_2  and  C_3
REMARK    2  A    between atoms: CA_2  and  C_11
REMARK    3  A    between atoms: C_3  and  C_4
REMARK    4  A    between atoms: C_4  and  S_5
REMARK    5  A    between atoms: C_6  and  O_7
REMARK    6  A    between atoms: C_6  and  C_8
REMARK    7  A    between atoms: C_8  and  O_9
REMARK    8  A    between atoms: C_8  and  O_10
REMARK    9  A    between atoms: C_11  and  O_12
REMARK   10  A    between atoms: C_11  and  OXT_13
REMARK                            x       y       z     vdW  Elec       q    Type
REMARK                         _______ _______ _______ _____ _____    ______ ____
ROOT
ATOM      1  C   UNL     1     113.220  76.452  83.457  0.00  0.00    +0.000 C 
ATOM      2  C   UNL     1     113.777  76.789  82.264  0.00  0.00    +0.000 C 
ENDROOT
BRANCH   1   4
ATOM      3  N   UNL     1     114.153  78.128  84.993  0.00  0.00    +0.000 NA
ATOM      4  CA  UNL     1     113.987  76.870  84.690  0.00  0.00    +0.000 C 
ATOM      5  H   UNL     1     113.642  78.717  84.321  0.00  0.00    +0.000 HD
BRANCH   4   6
ATOM      6  C   UNL     1     114.484  75.842  85.774  0.00  0.00    +0.000 C 
BRANCH   6   7
ATOM      7  O   UNL     1     113.431  75.595  86.683  0.00  0.00    +0.000 OA
ATOM      8  H   UNL     1     113.764  75.910  87.542  0.00  0.00    +0.000 HD
ENDBRANCH   6   7
BRANCH   6   9
ATOM      9  OXT UNL     1     115.090  74.621  85.495  0.00  0.00    +0.000 OA
ATOM     10  HXT UNL     1     115.013  74.502  84.533  0.00  0.00    +0.000 HD
ENDBRANCH   6   9
ENDBRANCH   4   6
ENDBRANCH   1   4
BRANCH   2  11
ATOM     11  O   UNL     1     114.949  77.519  82.187  0.00  0.00    +0.000 OA
ATOM     12  H   UNL     1     115.406  77.380  83.046  0.00  0.00    +0.000 HD
ENDBRANCH   2  11
BRANCH   1  13
ATOM     13  C   UNL     1     111.955  75.632  83.440  0.00  0.00    +0.000 C 
BRANCH  13  14
ATOM     14  S   UNL     1     110.497  76.130  84.328  0.00  0.00    +0.000 S 
ATOM     15  H   UNL     1     110.755  75.469  85.463  0.00  0.00    +0.000 HD
ENDBRANCH  13  14
ENDBRANCH   1  13
BRANCH   2  16
ATOM     16  C   UNL     1     113.220  76.380  80.904  0.00  0.00    +0.000 C 
BRANCH  16  17
ATOM     17  O   UNL     1     113.439  77.462  80.027  0.00  0.00    +0.000 OA
ATOM     18  H   UNL     1     113.734  77.053  79.196  0.00  0.00    +0.000 HD
ENDBRANCH  16  17
BRANCH  16  19
ATOM     19  O   UNL     1     113.909  75.258  80.400  0.00  0.00    +0.000 OA
ATOM     20  H   UNL     1     114.575  75.600  79.777  0.00  0.00    +0.000 HD
ENDBRANCH  16  19
ENDBRANCH   2  16
TORSDOF 10
ENDMDL
MODEL 6
REMARK VINA RESULT:      -4.4     18.269     19.312
REMARK  Name = 
REMARK  10 active torsions:
REMARK  status: ('A' for Active; 'I' for Inactive)
REMARK    1  A    between atoms: CA_2  and  C_3
REMARK    2  A    between atoms: CA_2  and  C_11
REMARK    3  A    between atoms: C_3  and  C_4
REMARK    4  A    between atoms: C_4  and  S_5
REMARK    5  A    between atoms: C_6  and  O_7
REMARK    6  A    between atoms: C_6  and  C_8
REMARK    7  A    between atoms: C_8  and  O_9
REMARK    8  A    between atoms: C_8  and  O_10
REMARK    9  A    between atoms: C_11  and  O_12
REMARK   10  A    between atoms: C_11  and  OXT_13
REMARK                            x       y       z     vdW  Elec       q    Type
REMARK                         _______ _______ _______ _____ _____    ______ ____
ROOT
ATOM      1  C   UNL     1     110.599 101.156  62.603  0.00  0.00    +0.000 C 
ATOM      2  C   UNL     1     109.785 100.461  63.441  0.00  0.00    +0.000 C 
ENDROOT
BRANCH   1   4
ATOM      3  N   UNL     1     110.029 103.537  62.819  0.00  0.00    +0.000 NA
ATOM      4  CA  UNL     1     110.051 102.464  62.079  0.00  0.00    +0.000 C 
ATOM      5  H   UNL     1     110.484 103.345  63.723  0.00  0.00    +0.000 HD
BRANCH   4   6
ATOM      6  C   UNL     1     109.635 102.671  60.574  0.00  0.00    +0.000 C 
BRANCH   6   7
ATOM      7  O   UNL     1     108.485 101.896  60.308  0.00  0.00    +0.000 OA
ATOM      8  H   UNL     1     108.824 101.074  59.912  0.00  0.00    +0.000 HD
ENDBRANCH   6   7
BRANCH   6   9
ATOM      9  OXT UNL     1     109.456 103.908  59.961  0.00  0.00    +0.000 OA
ATOM     10  HXT UNL     1     108.514 104.120  60.064  0.00  0.00    +0.000 HD
ENDBRANCH   6   9
ENDBRANCH   4   6
ENDBRANCH   1   4
BRANCH   2  11
ATOM     11  O   UNL     1     108.551 100.949  63.832  0.00  0.00    +0.000 OA
ATOM     12  H   UNL     1     108.708 101.418  64.681  0.00  0.00    +0.000 HD
ENDBRANCH   2  11
BRANCH   1  13
ATOM     13  C   UNL     1     111.913 100.530  62.213  0.00  0.00    +0.000 C 
BRANCH  13  14
ATOM     14  S   UNL     1     113.238 101.483  61.507  0.00  0.00    +0.000 S 
ATOM     15  H   UNL     1     113.449 100.710  60.434  0.00  0.00    +0.000 HD
ENDBRANCH  13  14
ENDBRANCH   1  13
BRANCH   2  16
ATOM     16  C   UNL     1     110.101  99.079  64.004  0.00  0.00    +0.000 C 
BRANCH  16  17
ATOM     17  O   UNL     1     109.648  99.063  65.338  0.00  0.00    +0.000 OA
ATOM     18  H   UNL     1     108.902  98.440  65.341  0.00  0.00    +0.000 HD
ENDBRANCH  16  17
BRANCH  16  19
ATOM     19  O   UNL     1     109.407  98.079  63.291  0.00  0.00    +0.000 OA
ATOM     20  H   UNL     1     108.695  98.531  62.804  0.00  0.00    +0.000 HD
ENDBRANCH  16  19
ENDBRANCH   2  16
TORSDOF 10
ENDMDL
MODEL 7
REMARK VINA RESULT:      -4.4     29.848     30.739
REMARK  Name = 
REMARK  10 active torsions:
REMARK  status: ('A' for Active; 'I' for Inactive)
REMARK    1  A    between atoms: CA_2  and  C_3
REMARK    2  A    between atoms: CA_2  and  C_11
REMARK    3  A    between atoms: C_3  and  C_4
REMARK    4  A    between atoms: C_4  and  S_5
REMARK    5  A    between atoms: C_6  and  O_7
REMARK    6  A    between atoms: C_6  and  C_8
REMARK    7  A    between atoms: C_8  and  O_9
REMARK    8  A    between atoms: C_8  and  O_10
REMARK    9  A    between atoms: C_11  and  O_12
REMARK   10  A    between atoms: C_11  and  OXT_13
REMARK                            x       y       z     vdW  Elec       q    Type
REMARK                         _______ _______ _______ _____ _____    ______ ____
ROOT
ATOM      1  C   UNL     1     113.075  75.373  83.567  0.00  0.00    +0.000 C 
ATOM      2  C   UNL     1     113.403  76.267  84.538  0.00  0.00    +0.000 C 
ENDROOT
BRANCH   1   4
ATOM      3  N   UNL     1     111.105  76.400  82.517  0.00  0.00    +0.000 NA
ATOM      4  CA  UNL     1     112.313  75.926  82.385  0.00  0.00    +0.000 C 
ATOM      5  H   UNL     1     110.832  76.384  83.510  0.00  0.00    +0.000 HD
BRANCH   4   6
ATOM      6  C   UNL     1     112.969  76.131  80.969  0.00  0.00    +0.000 C 
BRANCH   6   7
ATOM      7  O   UNL     1     112.485  75.133  80.094  0.00  0.00    +0.000 OA
ATOM      8  H   UNL     1     113.278  74.785  79.649  0.00  0.00    +0.000 HD
ENDBRANCH   6   7
BRANCH   6   9
ATOM      9  OXT UNL     1     112.984  77.332  80.265  0.00  0.00    +0.000 OA
ATOM     10  HXT UNL     1     112.147  77.360  79.772  0.00  0.00    +0.000 HD
ENDBRANCH   6   9
ENDBRANCH   4   6
ENDBRANCH   1   4
BRANCH   2  11
ATOM     11  O   UNL     1     113.103  77.612  84.422  0.00  0.00    +0.000 OA
ATOM     12  H   UNL     1     113.622  78.062  85.125  0.00  0.00    +0.000 HD
ENDBRANCH   2  11
BRANCH   1  13
ATOM     13  C   UNL     1     113.420  73.923  83.796  0.00  0.00    +0.000 C 
BRANCH  13  14
ATOM     14  S   UNL     1     112.775  72.627  82.763  0.00  0.00    +0.000 S 
ATOM     15  H   UNL     1     113.930  72.285  82.180  0.00  0.00    +0.000 HD
ENDBRANCH  13  14
ENDBRANCH   1  13
BRANCH   2  16
ATOM     16  C   UNL     1     114.083  75.903  85.854  0.00  0.00    +0.000 C 
BRANCH  16  17
ATOM     17  O   UNL     1     114.691  77.077  86.342  0.00  0.00    +0.000 OA
ATOM     18  H   UNL     1     115.128  77.472  85.568  0.00  0.00    +0.000 HD
ENDBRANCH  16  17
BRANCH  16  19
ATOM     19  O   UNL     1     113.133  75.471  86.803  0.00  0.00    +0.000 OA
ATOM     20  H   UNL     1     113.622  74.951  87.466  0.00  0.00    +0.000 HD
ENDBRANCH  16  19
ENDBRANCH   2  16
TORSDOF 10
ENDMDL
MODEL 8
REMARK VINA RESULT:      -4.4     35.998     37.974
REMARK  Name = 
REMARK  10 active torsions:
REMARK  status: ('A' for Active; 'I' for Inactive)
REMARK    1  A    between atoms: CA_2  and  C_3
REMARK    2  A    between atoms: CA_2  and  C_11
REMARK    3  A    between atoms: C_3  and  C_4
REMARK    4  A    between atoms: C_4  and  S_5
REMARK    5  A    between atoms: C_6  and  O_7
REMARK    6  A    between atoms: C_6  and  C_8
REMARK    7  A    between atoms: C_8  and  O_9
REMARK    8  A    between atoms: C_8  and  O_10
REMARK    9  A    between atoms: C_11  and  O_12
REMARK   10  A    between atoms: C_11  and  OXT_13
REMARK                            x       y       z     vdW  Elec       q    Type
REMARK                         _______ _______ _______ _____ _____    ______ ____
ROOT
ATOM      1  C   UNL     1     104.048  64.699  76.922  0.00  0.00    +0.000 C 
ATOM      2  C   UNL     1     105.324  64.475  77.332  0.00  0.00    +0.000 C 
ENDROOT
BRANCH   1   4
ATOM      3  N   UNL     1     102.767  65.583  78.824  0.00  0.00    +0.000 NA
ATOM      4  CA  UNL     1     103.298  65.791  77.652  0.00  0.00    +0.000 C 
ATOM      5  H   UNL     1     103.002  64.634  79.149  0.00  0.00    +0.000 HD
BRANCH   4   6
ATOM      6  C   UNL     1     103.254  67.280  77.143  0.00  0.00    +0.000 C 
BRANCH   6   7
ATOM      7  O   UNL     1     104.558  67.819  77.198  0.00  0.00    +0.000 OA
ATOM      8  H   UNL     1     104.733  68.140  76.295  0.00  0.00    +0.000 HD
ENDBRANCH   6   7
BRANCH   6   9
ATOM      9  OXT UNL     1     102.680  67.695  75.945  0.00  0.00    +0.000 OA
ATOM     10  HXT UNL     1     102.895  68.639  75.862  0.00  0.00    +0.000 HD
ENDBRANCH   6   9
ENDBRANCH   4   6
ENDBRANCH   1   4
BRANCH   2  11
ATOM     11  O   UNL     1     105.918  65.238  78.321  0.00  0.00    +0.000 OA
ATOM     12  H   UNL     1     105.464  64.989  79.157  0.00  0.00    +0.000 HD
ENDBRANCH   2  11
BRANCH   1  13
ATOM     13  C   UNL     1     103.478  63.798  75.857  0.00  0.00    +0.000 C 
BRANCH  13  14
ATOM     14  S   UNL     1     103.130  64.384  74.214  0.00  0.00    +0.000 S 
ATOM     15  H   UNL     1     102.250  63.432  73.877  0.00  0.00    +0.000 HD
ENDBRANCH  13  14
ENDBRANCH   1  13
BRANCH   2  16
ATOM     16  C   UNL     1     106.219  63.360  76.799  0.00  0.00    +0.000 C 
BRANCH  16  17
ATOM     17  O   UNL     1     107.446  63.954  76.439  0.00  0.00    +0.000 OA
ATOM     18  H   UNL     1     107.568  64.680  77.075  0.00  0.00    +0.000 HD
ENDBRANCH  16  17
BRANCH  16  19
ATOM     19  O   UNL     1     106.472  62.401  77.802  0.00  0.00    +0.000 OA
ATOM     20  H   UNL     1     107.335  62.002  77.591  0.00  0.00    +0.000 HD
ENDBRANCH  16  19
ENDBRANCH   2  16
TORSDOF 10
ENDMDL
MODEL 9
REMARK VINA RESULT:      -4.3      6.674      7.731
REMARK  Name = 
REMARK  10 active torsions:
REMARK  status: ('A' for Active; 'I' for Inactive)
REMARK    1  A    between atoms: CA_2  and  C_3
REMARK    2  A    between atoms: CA_2  and  C_11
REMARK    3  A    between atoms: C_3  and  C_4
REMARK    4  A    between atoms: C_4  and  S_5
REMARK    5  A    between atoms: C_6  and  O_7
REMARK    6  A    between atoms: C_6  and  C_8
REMARK    7  A    between atoms: C_8  and  O_9
REMARK    8  A    between atoms: C_8  and  O_10
REMARK    9  A    between atoms: C_11  and  O_12
REMARK   10  A    between atoms: C_11  and  OXT_13
REMARK                            x       y       z     vdW  Elec       q    Type
REMARK                         _______ _______ _______ _____ _____    ______ ____
ROOT
ATOM      1  C   UNL     1     101.633  97.651  81.816  0.00  0.00    +0.000 C 
ATOM      2  C   UNL     1     100.730  96.754  82.294  0.00  0.00    +0.000 C 
ENDROOT
BRANCH   1   4
ATOM      3  N   UNL     1     103.740  97.323  83.039  0.00  0.00    +0.000 NA
ATOM      4  CA  UNL     1     103.086  97.247  81.913  0.00  0.00    +0.000 C 
ATOM      5  H   UNL     1     103.102  97.621  83.790  0.00  0.00    +0.000 HD
BRANCH   4   6
ATOM      6  C   UNL     1     103.858  96.551  80.729  0.00  0.00    +0.000 C 
BRANCH   6   7
ATOM      7  O   UNL     1     103.476  95.192  80.673  0.00  0.00    +0.000 OA
ATOM      8  H   UNL     1     102.610  95.194  80.229  0.00  0.00    +0.000 HD
ENDBRANCH   6   7
BRANCH   6   9
ATOM      9  OXT UNL     1     103.905  97.026  79.422  0.00  0.00    +0.000 OA
ATOM     10  HXT UNL     1     104.719  97.553  79.361  0.00  0.00    +0.000 HD
ENDBRANCH   6   9
ENDBRANCH   4   6
ENDBRANCH   1   4
BRANCH   2  11
ATOM     11  O   UNL     1     101.119  95.522  82.788  0.00  0.00    +0.000 OA
ATOM     12  H   UNL     1     100.472  94.875  82.428  0.00  0.00    +0.000 HD
ENDBRANCH   2  11
BRANCH   1  13
ATOM     13  C   UNL     1     101.117  98.978  81.322  0.00  0.00    +0.000 C 
BRANCH  13  14
ATOM     14  S   UNL     1     100.292  99.145  79.755  0.00  0.00    +0.000 S 
ATOM     15  H   UNL     1      99.588 100.245  80.050  0.00  0.00    +0.000 HD
ENDBRANCH  13  14
ENDBRANCH   1  13
BRANCH   2  16
ATOM     16  C   UNL     1      99.228  97.002  82.381  0.00  0.00    +0.000 C 
BRANCH  16  17
ATOM     17  O   UNL     1      98.592  95.900  81.776  0.00  0.00    +0.000 OA
ATOM     18  H   UNL     1      97.641  96.072  81.881  0.00  0.00    +0.000 HD
ENDBRANCH  16  17
BRANCH  16  19
ATOM     19  O   UNL     1      98.811  97.067  83.727  0.00  0.00    +0.000 OA
ATOM     20  H   UNL     1      98.629  98.006  83.914  0.00  0.00    +0.000 HD
ENDBRANCH  16  19
ENDBRANCH   2  16
TORSDOF 10
ENDMDL
