MODEL 1
REMARK VINA RESULT:      -5.4      0.000      0.000
REMARK  Name = 
REMARK  5 active torsions:
REMARK  status: ('A' for Active; 'I' for Inactive)
REMARK    1  A    between atoms: C_1  and  S_2
REMARK    2  A    between atoms: S_2  and  N_5
REMARK    3  A    between atoms: C_6  and  C_8
REMARK    4  A    between atoms: C_8  and  C_9
REMARK    5  A    between atoms: C_11  and  N_12
REMARK                            x       y       z     vdW  Elec       q    Type
REMARK                         _______ _______ _______ _____ _____    ______ ____
ROOT
ATOM      1  C   UNL     1     107.217  74.914  97.705  0.00  0.00    +0.000 C 
ENDROOT
BRANCH   1   2
ATOM      2  C   UNL     1     105.984  75.381  98.419  0.00  0.00    +0.000 C 
ATOM      3  C   UNL     1     104.779  75.609  97.906  0.00  0.00    +0.000 C 
ATOM      4  C   UNL     1     103.878  76.148  98.949  0.00  0.00    +0.000 C 
ATOM      5  C   UNL     1     104.737  75.916 100.202  0.00  0.00    +0.000 C 
ATOM      6  O   UNL     1     106.096  75.634  99.787  0.00  0.00    +0.000 OA
BRANCH   4   7
ATOM      7  N   UNL     1     103.595  77.549  98.651  0.00  0.00    +0.000 NA
ATOM      8  H   UNL     1     103.747  77.713  97.655  0.00  0.00    +0.000 HD
ATOM      9  H   UNL     1     104.266  78.146  99.132  0.00  0.00    +0.000 HD
ENDBRANCH   4   7
ENDBRANCH   1   2
BRANCH   1  11
ATOM     10  N   UNL     1     109.505  74.833  98.683  0.00  0.00    +0.000 N 
ATOM     11  C   UNL     1     108.470  75.647  98.155  0.00  0.00    +0.000 C 
ATOM     12  O   UNL     1     108.554  76.864  98.124  0.00  0.00    +0.000 OA
ATOM     13  H   UNL     1     109.384  73.835  98.831  0.00  0.00    +0.000 HD
BRANCH  10  15
ATOM     14  C   UNL     1     110.581  76.064 100.822  0.00  0.00    +0.000 C 
ATOM     15  S   UNL     1     110.967  75.479  99.185  0.00  0.00    +0.000 S 
ATOM     16  O   UNL     1     111.294  76.598  98.346  0.00  0.00    +0.000 OA
ATOM     17  O   UNL     1     111.879  74.364  99.333  0.00  0.00    +0.000 OA
ENDBRANCH  10  15
ENDBRANCH   1  11
TORSDOF 4
ENDMDL
MODEL 2
REMARK VINA RESULT:      -5.4     13.306     14.247
REMARK  Name = 
REMARK  5 active torsions:
REMARK  status: ('A' for Active; 'I' for Inactive)
REMARK    1  A    between atoms: C_1  and  S_2
REMARK    2  A    between atoms: S_2  and  N_5
REMARK    3  A    between atoms: C_6  and  C_8
REMARK    4  A    between atoms: C_8  and  C_9
REMARK    5  A    between atoms: C_11  and  N_12
REMARK                            x       y       z     vdW  Elec       q    Type
REMARK                         _______ _______ _______ _____ _____    ______ ____
ROOT
ATOM      1  C   UNL     1     114.990  76.049  85.420  0.00  0.00    +0.000 C 
ENDROOT
BRANCH   1   2
ATOM      2  C   UNL     1     113.525  75.732  85.364  0.00  0.00    +0.000 C 
ATOM      3  C   UNL     1     112.727  75.744  84.301  0.00  0.00    +0.000 C 
ATOM      4  C   UNL     1     111.334  75.458  84.710  0.00  0.00    +0.000 C 
ATOM      5  C   UNL     1     111.559  75.015  86.165  0.00  0.00    +0.000 C 
ATOM      6  O   UNL     1     112.897  75.402  86.565  0.00  0.00    +0.000 OA
BRANCH   4   7
ATOM      7  N   UNL     1     110.537  76.672  84.557  0.00  0.00    +0.000 NA
ATOM      8  H   UNL     1     110.302  76.792  83.571  0.00  0.00    +0.000 HD
ATOM      9  H   UNL     1     111.097  77.486  84.806  0.00  0.00    +0.000 HD
ENDBRANCH   4   7
ENDBRANCH   1   2
BRANCH   1  11
ATOM     10  N   UNL     1     116.318  76.867  87.360  0.00  0.00    +0.000 N 
ATOM     11  C   UNL     1     115.313  77.161  86.404  0.00  0.00    +0.000 C 
ATOM     12  O   UNL     1     114.701  78.217  86.410  0.00  0.00    +0.000 OA
ATOM     13  H   UNL     1     116.734  75.943  87.438  0.00  0.00    +0.000 HD
BRANCH  10  15
ATOM     14  C   UNL     1     118.274  77.230  89.175  0.00  0.00    +0.000 C 
ATOM     15  S   UNL     1     116.822  77.998  88.489  0.00  0.00    +0.000 S 
ATOM     16  O   UNL     1     115.819  78.115  89.511  0.00  0.00    +0.000 OA
ATOM     17  O   UNL     1     117.263  79.156  87.740  0.00  0.00    +0.000 OA
ENDBRANCH  10  15
ENDBRANCH   1  11
TORSDOF 4
ENDMDL
MODEL 3
REMARK VINA RESULT:      -5.3     14.120     15.308
REMARK  Name = 
REMARK  5 active torsions:
REMARK  status: ('A' for Active; 'I' for Inactive)
REMARK    1  A    between atoms: C_1  and  S_2
REMARK    2  A    between atoms: S_2  and  N_5
REMARK    3  A    between atoms: C_6  and  C_8
REMARK    4  A    between atoms: C_8  and  C_9
REMARK    5  A    between atoms: C_11  and  N_12
REMARK                            x       y       z     vdW  Elec       q    Type
REMARK                         _______ _______ _______ _____ _____    ______ ____
ROOT
ATOM      1  C   UNL     1     115.385  76.766  85.624  0.00  0.00    +0.000 C 
ENDROOT
BRANCH   1   2
ATOM      2  C   UNL     1     115.847  77.242  86.969  0.00  0.00    +0.000 C 
ATOM      3  C   UNL     1     115.980  78.496  87.389  0.00  0.00    +0.000 C 
ATOM      4  C   UNL     1     116.554  78.514  88.754  0.00  0.00    +0.000 C 
ATOM      5  C   UNL     1     116.457  77.023  89.114  0.00  0.00    +0.000 C 
ATOM      6  O   UNL     1     116.206  76.269  87.902  0.00  0.00    +0.000 OA
BRANCH   4   7
ATOM      7  N   UNL     1     117.916  79.039  88.687  0.00  0.00    +0.000 NA
ATOM      8  H   UNL     1     118.443  78.504  87.996  0.00  0.00    +0.000 HD
ATOM      9  H   UNL     1     118.389  78.884  89.575  0.00  0.00    +0.000 HD
ENDBRANCH   4   7
ENDBRANCH   1   2
BRANCH   1  11
ATOM     10  N   UNL     1     113.227  76.270  84.485  0.00  0.00    +0.000 N 
ATOM     11  C   UNL     1     114.002  76.137  85.666  0.00  0.00    +0.000 C 
ATOM     12  O   UNL     1     113.562  75.609  86.675  0.00  0.00    +0.000 OA
ATOM     13  H   UNL     1     113.541  76.823  83.693  0.00  0.00    +0.000 HD
BRANCH  10  15
ATOM     14  C   UNL     1     111.178  76.150  82.741  0.00  0.00    +0.000 C 
ATOM     15  S   UNL     1     111.698  75.598  84.353  0.00  0.00    +0.000 S 
ATOM     16  O   UNL     1     110.845  76.180  85.352  0.00  0.00    +0.000 OA
ATOM     17  O   UNL     1     111.885  74.165  84.274  0.00  0.00    +0.000 OA
ENDBRANCH  10  15
ENDBRANCH   1  11
TORSDOF 4
ENDMDL
MODEL 4
REMARK VINA RESULT:      -5.3     15.631     16.889
REMARK  Name = 
REMARK  5 active torsions:
REMARK  status: ('A' for Active; 'I' for Inactive)
REMARK    1  A    between atoms: C_1  and  S_2
REMARK    2  A    between atoms: S_2  and  N_5
REMARK    3  A    between atoms: C_6  and  C_8
REMARK    4  A    between atoms: C_8  and  C_9
REMARK    5  A    between atoms: C_11  and  N_12
REMARK                            x       y       z     vdW  Elec       q    Type
REMARK                         _______ _______ _______ _____ _____    ______ ____
ROOT
ATOM      1  C   UNL     1     111.906  76.096  82.235  0.00  0.00    +0.000 C 
ENDROOT
BRANCH   1   2
ATOM      2  C   UNL     1     112.319  74.752  81.714  0.00  0.00    +0.000 C 
ATOM      3  C   UNL     1     111.537  73.774  81.268  0.00  0.00    +0.000 C 
ATOM      4  C   UNL     1     112.353  72.583  80.937  0.00  0.00    +0.000 C 
ATOM      5  C   UNL     1     113.765  73.184  81.028  0.00  0.00    +0.000 C 
ATOM      6  O   UNL     1     113.683  74.461  81.708  0.00  0.00    +0.000 OA
BRANCH   4   7
ATOM      7  N   UNL     1     112.072  71.533  81.912  0.00  0.00    +0.000 NA
ATOM      8  H   UNL     1     112.823  70.842  81.880  0.00  0.00    +0.000 HD
ATOM      9  H   UNL     1     111.227  71.031  81.645  0.00  0.00    +0.000 HD
ENDBRANCH   4   7
ENDBRANCH   1   2
BRANCH   1  11
ATOM     10  N   UNL     1     113.581  75.955  84.072  0.00  0.00    +0.000 N 
ATOM     11  C   UNL     1     112.253  76.290  83.702  0.00  0.00    +0.000 C 
ATOM     12  O   UNL     1     111.423  76.650  84.520  0.00  0.00    +0.000 OA
ATOM     13  H   UNL     1     114.233  75.531  83.418  0.00  0.00    +0.000 HD
BRANCH  10  15
ATOM     14  C   UNL     1     115.733  75.365  85.579  0.00  0.00    +0.000 C 
ATOM     15  S   UNL     1     114.136  76.151  85.640  0.00  0.00    +0.000 S 
ATOM     16  O   UNL     1     113.281  75.418  86.532  0.00  0.00    +0.000 OA
ATOM     17  O   UNL     1     114.363  77.569  85.821  0.00  0.00    +0.000 OA
ENDBRANCH  10  15
ENDBRANCH   1  11
TORSDOF 4
ENDMDL
MODEL 5
REMARK VINA RESULT:      -5.3      3.572      5.202
REMARK  Name = 
REMARK  5 active torsions:
REMARK  status: ('A' for Active; 'I' for Inactive)
REMARK    1  A    between atoms: C_1  and  S_2
REMARK    2  A    between atoms: S_2  and  N_5
REMARK    3  A    between atoms: C_6  and  C_8
REMARK    4  A    between atoms: C_8  and  C_9
REMARK    5  A    between atoms: C_11  and  N_12
REMARK                            x       y       z     vdW  Elec       q    Type
REMARK                         _______ _______ _______ _____ _____    ______ ____
ROOT
ATOM      1  C   UNL     1     108.543  74.248  97.784  0.00  0.00    +0.000 C 
ENDROOT
BRANCH   1   2
ATOM      2  C   UNL     1     109.600  75.130  98.375  0.00  0.00    +0.000 C 
ATOM      3  C   UNL     1     109.532  76.435  98.621  0.00  0.00    +0.000 C 
ATOM      4  C   UNL     1     110.836  76.925  99.122  0.00  0.00    +0.000 C 
ATOM      5  C   UNL     1     111.558  75.590  99.365  0.00  0.00    +0.000 C 
ATOM      6  O   UNL     1     110.822  74.537  98.694  0.00  0.00    +0.000 OA
BRANCH   4   7
ATOM      7  N   UNL     1     111.446  77.773  98.100  0.00  0.00    +0.000 NA
ATOM      8  H   UNL     1     112.395  77.442  97.919  0.00  0.00    +0.000 HD
ATOM      9  H   UNL     1     111.549  78.721  98.456  0.00  0.00    +0.000 HD
ENDBRANCH   4   7
ENDBRANCH   1   2
BRANCH   1  11
ATOM     10  N   UNL     1     108.519  73.322 100.095  0.00  0.00    +0.000 N 
ATOM     11  C   UNL     1     107.986  73.246  98.782  0.00  0.00    +0.000 C 
ATOM     12  O   UNL     1     107.180  72.390  98.457  0.00  0.00    +0.000 OA
ATOM     13  H   UNL     1     109.284  73.947 100.331  0.00  0.00    +0.000 HD
BRANCH  10  15
ATOM     14  C   UNL     1     108.864  72.945 102.739  0.00  0.00    +0.000 C 
ATOM     15  S   UNL     1     107.983  72.318 101.324  0.00  0.00    +0.000 S 
ATOM     16  O   UNL     1     108.416  70.976 101.051  0.00  0.00    +0.000 OA
ATOM     17  O   UNL     1     106.582  72.623 101.522  0.00  0.00    +0.000 OA
ENDBRANCH  10  15
ENDBRANCH   1  11
TORSDOF 4
ENDMDL
MODEL 6
REMARK VINA RESULT:      -5.2     16.931     18.123
REMARK  Name = 
REMARK  5 active torsions:
REMARK  status: ('A' for Active; 'I' for Inactive)
REMARK    1  A    between atoms: C_1  and  S_2
REMARK    2  A    between atoms: S_2  and  N_5
REMARK    3  A    between atoms: C_6  and  C_8
REMARK    4  A    between atoms: C_8  and  C_9
REMARK    5  A    between atoms: C_11  and  N_12
REMARK                            x       y       z     vdW  Elec       q    Type
REMARK                         _______ _______ _______ _____ _____    ______ ____
ROOT
ATOM      1  C   UNL     1     113.642  72.607  82.870  0.00  0.00    +0.000 C 
ENDROOT
BRANCH   1   2
ATOM      2  C   UNL     1     113.281  73.879  83.576  0.00  0.00    +0.000 C 
ATOM      3  C   UNL     1     114.054  74.625  84.359  0.00  0.00    +0.000 C 
ATOM      4  C   UNL     1     113.269  75.745  84.926  0.00  0.00    +0.000 C 
ATOM      5  C   UNL     1     111.984  75.632  84.090  0.00  0.00    +0.000 C 
ATOM      6  O   UNL     1     111.974  74.344  83.427  0.00  0.00    +0.000 OA
BRANCH   4   7
ATOM      7  N   UNL     1     113.089  75.519  86.358  0.00  0.00    +0.000 NA
ATOM      8  H   UNL     1     113.973  75.199  86.756  0.00  0.00    +0.000 HD
ATOM      9  H   UNL     1     112.429  74.758  86.506  0.00  0.00    +0.000 HD
ENDBRANCH   4   7
ENDBRANCH   1   2
BRANCH   1  11
ATOM     10  N   UNL     1     112.548  73.017  80.671  0.00  0.00    +0.000 N 
ATOM     11  C   UNL     1     112.612  72.200  81.828  0.00  0.00    +0.000 C 
ATOM     12  O   UNL     1     111.845  71.268  82.008  0.00  0.00    +0.000 OA
ATOM     13  H   UNL     1     113.094  73.869  80.581  0.00  0.00    +0.000 HD
BRANCH  10  15
ATOM     14  C   UNL     1     112.252  73.541  78.046  0.00  0.00    +0.000 C 
ATOM     15  S   UNL     1     111.497  72.682  79.411  0.00  0.00    +0.000 S 
ATOM     16  O   UNL     1     110.220  73.276  79.698  0.00  0.00    +0.000 OA
ATOM     17  O   UNL     1     111.616  71.264  79.143  0.00  0.00    +0.000 OA
ENDBRANCH  10  15
ENDBRANCH   1  11
TORSDOF 4
ENDMDL
MODEL 7
REMARK VINA RESULT:      -5.2      2.331      3.002
REMARK  Name = 
REMARK  5 active torsions:
REMARK  status: ('A' for Active; 'I' for Inactive)
REMARK    1  A    between atoms: C_1  and  S_2
REMARK    2  A    between atoms: S_2  and  N_5
REMARK    3  A    between atoms: C_6  and  C_8
REMARK    4  A    between atoms: C_8  and  C_9
REMARK    5  A    between atoms: C_11  and  N_12
REMARK                            x       y       z     vdW  Elec       q    Type
REMARK                         _______ _______ _______ _____ _____    ______ ____
ROOT
ATOM      1  C   UNL     1     105.115  73.530 100.771  0.00  0.00    +0.000 C 
ENDROOT
BRANCH   1   2
ATOM      2  C   UNL     1     104.478  74.873 100.574  0.00  0.00    +0.000 C 
ATOM      3  C   UNL     1     103.468  75.187  99.769  0.00  0.00    +0.000 C 
ATOM      4  C   UNL     1     103.218  76.646  99.815  0.00  0.00    +0.000 C 
ATOM      5  C   UNL     1     104.105  77.040 101.008  0.00  0.00    +0.000 C 
ATOM      6  O   UNL     1     105.007  75.943 101.296  0.00  0.00    +0.000 OA
BRANCH   4   7
ATOM      7  N   UNL     1     103.615  77.234  98.538  0.00  0.00    +0.000 NA
ATOM      8  H   UNL     1     102.789  77.323  97.945  0.00  0.00    +0.000 HD
ATOM      9  H   UNL     1     104.239  76.599  98.045  0.00  0.00    +0.000 HD
ENDBRANCH   4   7
ENDBRANCH   1   2
BRANCH   1  11
ATOM     10  N   UNL     1     106.992  74.506  99.458  0.00  0.00    +0.000 N 
ATOM     11  C   UNL     1     106.338  73.324  99.893  0.00  0.00    +0.000 C 
ATOM     12  O   UNL     1     106.695  72.215  99.532  0.00  0.00    +0.000 OA
ATOM     13  H   UNL     1     106.618  75.431  99.649  0.00  0.00    +0.000 HD
BRANCH  10  15
ATOM     14  C   UNL     1     108.747  76.179  98.287  0.00  0.00    +0.000 C 
ATOM     15  S   UNL     1     108.378  74.453  98.519  0.00  0.00    +0.000 S 
ATOM     16  O   UNL     1     108.058  73.861  97.249  0.00  0.00    +0.000 OA
ATOM     17  O   UNL     1     109.421  73.901  99.357  0.00  0.00    +0.000 OA
ENDBRANCH  10  15
ENDBRANCH   1  11
TORSDOF 4
ENDMDL
MODEL 8
REMARK VINA RESULT:      -5.1      2.865      3.550
REMARK  Name = 
REMARK  5 active torsions:
REMARK  status: ('A' for Active; 'I' for Inactive)
REMARK    1  A    between atoms: C_1  and  S_2
REMARK    2  A    between atoms: S_2  and  N_5
REMARK    3  A    between atoms: C_6  and  C_8
REMARK    4  A    between atoms: C_8  and  C_9
REMARK    5  A    between atoms: C_11  and  N_12
REMARK                            x       y       z     vdW  Elec       q    Type
REMARK                         _______ _______ _______ _____ _____    ______ ____
ROOT
ATOM      1  C   UNL     1     109.110  76.622  98.248  0.00  0.00    +0.000 C 
ENDROOT
BRANCH   1   2
ATOM      2  C   UNL     1     108.430  75.367  98.707  0.00  0.00    +0.000 C 
ATOM      3  C   UNL     1     108.876  74.118  98.619  0.00  0.00    +0.000 C 
ATOM      4  C   UNL     1     107.844  73.176  99.110  0.00  0.00    +0.000 C 
ATOM      5  C   UNL     1     106.848  74.163  99.741  0.00  0.00    +0.000 C 
ATOM      6  O   UNL     1     107.164  75.500  99.279  0.00  0.00    +0.000 OA
BRANCH   4   7
ATOM      7  N   UNL     1     107.319  72.418  97.978  0.00  0.00    +0.000 NA
ATOM      8  H   UNL     1     108.043  71.782  97.641  0.00  0.00    +0.000 HD
ATOM      9  H   UNL     1     107.124  73.048  97.202  0.00  0.00    +0.000 HD
ENDBRANCH   4   7
ENDBRANCH   1   2
BRANCH   1  11
ATOM     10  N   UNL     1     110.703  77.815  99.744  0.00  0.00    +0.000 N 
ATOM     11  C   UNL     1     110.516  76.767  98.806  0.00  0.00    +0.000 C 
ATOM     12  O   UNL     1     111.439  76.067  98.422  0.00  0.00    +0.000 OA
ATOM     13  H   UNL     1     109.968  78.479  99.964  0.00  0.00    +0.000 HD
BRANCH  10  15
ATOM     14  C   UNL     1     111.852  79.520 101.483  0.00  0.00    +0.000 C 
ATOM     15  S   UNL     1     112.182  78.082 100.484  0.00  0.00    +0.000 S 
ATOM     16  O   UNL     1     113.153  78.415  99.479  0.00  0.00    +0.000 OA
ATOM     17  O   UNL     1     112.396  76.972 101.388  0.00  0.00    +0.000 OA
ENDBRANCH  10  15
ENDBRANCH   1  11
TORSDOF 4
ENDMDL
MODEL 9
REMARK VINA RESULT:      -5.1     18.319     19.394
REMARK  Name = 
REMARK  5 active torsions:
REMARK  status: ('A' for Active; 'I' for Inactive)
REMARK    1  A    between atoms: C_1  and  S_2
REMARK    2  A    between atoms: S_2  and  N_5
REMARK    3  A    between atoms: C_6  and  C_8
REMARK    4  A    between atoms: C_8  and  C_9
REMARK    5  A    between atoms: C_11  and  N_12
REMARK                            x       y       z     vdW  Elec       q    Type
REMARK                         _______ _______ _______ _____ _____    ______ ____
ROOT
ATOM      1  C   UNL     1     112.668  74.693  80.428  0.00  0.00    +0.000 C 
ENDROOT
BRANCH   1   2
ATOM      2  C   UNL     1     112.300  75.018  81.844  0.00  0.00    +0.000 C 
ATOM      3  C   UNL     1     111.817  76.161  82.321  0.00  0.00    +0.000 C 
ATOM      4  C   UNL     1     111.683  76.080  83.793  0.00  0.00    +0.000 C 
ATOM      5  C   UNL     1     111.926  74.577  84.010  0.00  0.00    +0.000 C 
ATOM      6  O   UNL     1     112.501  74.023  82.801  0.00  0.00    +0.000 OA
BRANCH   4   7
ATOM      7  N   UNL     1     112.678  76.955  84.408  0.00  0.00    +0.000 NA
ATOM      8  H   UNL     1     112.903  77.708  83.756  0.00  0.00    +0.000 HD
ATOM      9  H   UNL     1     113.547  76.444  84.548  0.00  0.00    +0.000 HD
ENDBRANCH   4   7
ENDBRANCH   1   2
BRANCH   1  11
ATOM     10  N   UNL     1     112.099  73.179  78.535  0.00  0.00    +0.000 N 
ATOM     11  C   UNL     1     111.680  73.746  79.766  0.00  0.00    +0.000 C 
ATOM     12  O   UNL     1     110.572  73.539  80.233  0.00  0.00    +0.000 OA
ATOM     13  H   UNL     1     112.965  73.453  78.082  0.00  0.00    +0.000 HD
BRANCH  10  15
ATOM     14  C   UNL     1     112.192  71.638  76.329  0.00  0.00    +0.000 C 
ATOM     15  S   UNL     1     111.146  72.084  77.699  0.00  0.00    +0.000 S 
ATOM     16  O   UNL     1     109.980  72.762  77.205  0.00  0.00    +0.000 OA
ATOM     17  O   UNL     1     111.026  70.915  78.545  0.00  0.00    +0.000 OA
ENDBRANCH  10  15
ENDBRANCH   1  11
TORSDOF 4
ENDMDL
