REMARK  Name = 
REMARK  20 active torsions:
REMARK  status: ('A' for Active; 'I' for Inactive)
REMARK    1  A    between atoms: C_1  and  C_2
REMARK    2  A    between atoms: C_2  and  C_3
REMARK    3  A    between atoms: C_7  and  O_8
REMARK    4  A    between atoms: C_7  and  C_20
REMARK    5  A    between atoms: O_8  and  C_9
REMARK    6  A    between atoms: C_9  and  C_11
REMARK    7  A    between atoms: C_11  and  O_12
REMARK    8  A    between atoms: O_12  and  C_13
REMARK    9  A    between atoms: C_18  and  O_19
REMARK   10  A    between atoms: C_20  and  O_22
REMARK   11  A    between atoms: O_22  and  C_23
REMARK   12  A    between atoms: C_28  and  N_29
REMARK   13  A    between atoms: C_30  and  C_32
REMARK   14  A    between atoms: C_32  and  N_33
REMARK   15  A    between atoms: C_32  and  C_34
REMARK   16  A    between atoms: C_34  and  C_35
REMARK   17  A    between atoms: C_35  and  O_36
REMARK   18  A    between atoms: O_36  and  C_37
REMARK   19  A    between atoms: C_37  and  C_38
REMARK   20  A    between atoms: C_38  and  O_39
REMARK                            x       y       z     vdW  Elec       q    Type
REMARK                         _______ _______ _______ _____ _____    ______ ____
ROOT
ATOM      1  C   UNL     1       5.017   7.475  -5.748  0.00  0.00    +0.000 C 
ATOM      2  O   UNL     1       3.882   7.931  -5.721  0.00  0.00    +0.000 OA
ENDROOT
BRANCH   1   7
ATOM      3  C   UNL     1       6.834   6.864  -4.030  0.00  0.00    +0.000 C 
ATOM      4  C   UNL     1       6.913   5.895  -2.838  0.00  0.00    +0.000 C 
ATOM      5  C   UNL     1       5.464   5.580  -2.474  0.00  0.00    +0.000 C 
ATOM      6  C   UNL     1       4.608   6.197  -3.584  0.00  0.00    +0.000 C 
ATOM      7  C   UNL     1       5.561   6.373  -4.787  0.00  0.00    +0.000 C 
BRANCH   3   9
ATOM      8  C   UNL     1       9.331   7.394  -4.069  0.00  0.00    +0.000 C 
ATOM      9  C   UNL     1       8.133   6.880  -4.854  0.00  0.00    +0.000 C 
ENDBRANCH   3   9
BRANCH   7  10
ATOM     10  O   UNL     1       5.863   5.060  -5.297  0.00  0.00    +0.000 OA
BRANCH  10  11
ATOM     11  C   UNL     1       5.420   4.675  -6.515  0.00  0.00    +0.000 C 
ATOM     12  O   UNL     1       4.724   5.342  -7.273  0.00  0.00    +0.000 OA
BRANCH  11  13
ATOM     13  C   UNL     1       5.996   3.325  -6.905  0.00  0.00    +0.000 C 
BRANCH  13  14
ATOM     14  O   UNL     1       5.528   2.181  -6.204  0.00  0.00    +0.000 OA
BRANCH  14  15
ATOM     15  C   UNL     1       6.081   0.949  -6.733  0.00  0.00    +0.000 C 
ATOM     16  C   UNL     1       5.570   0.635  -8.151  0.00  0.00    +0.000 C 
ATOM     17  C   UNL     1       4.055   0.508  -8.186  0.00  0.00    +0.000 C 
ATOM     18  C   UNL     1       3.594  -0.606  -7.260  0.00  0.00    +0.000 C 
ATOM     19  C   UNL     1       4.138  -0.431  -5.843  0.00  0.00    +0.000 C 
ATOM     20  C   UNL     1       5.656  -0.226  -5.824  0.00  0.00    +0.000 C 
BRANCH  20  21
ATOM     21  O   UNL     1       6.080  -0.007  -4.480  0.00  0.00    +0.000 OA
ATOM     22  H   UNL     1       5.739   0.873  -4.235  0.00  0.00    +0.000 HD
ENDBRANCH  20  21
ENDBRANCH  14  15
ENDBRANCH  13  14
ENDBRANCH  11  13
ENDBRANCH  10  11
ENDBRANCH   7  10
ENDBRANCH   1   7
BRANCH   1  23
ATOM     23  O   UNL     1       5.986   7.848  -6.629  0.00  0.00    +0.000 OA
BRANCH  23  24
ATOM     24  C   UNL     1       5.768   8.890  -7.614  0.00  0.00    +0.000 C 
ATOM     25  C   UNL     1       5.492  10.242  -6.959  0.00  0.00    +0.000 C 
ATOM     26  C   UNL     1       5.183  11.287  -8.018  0.00  0.00    +0.000 C 
ATOM     27  O   UNL     1       4.054  10.868  -8.782  0.00  0.00    +0.000 OA
ATOM     28  C   UNL     1       4.356   9.712  -9.564  0.00  0.00    +0.000 C 
ATOM     29  C   UNL     1       4.732   8.498  -8.690  0.00  0.00    +0.000 C 
BRANCH  29  30
ATOM     30  N   UNL     1       5.170   7.345  -9.496  0.00  0.00    +0.000 N 
ATOM     31  C   UNL     1       6.233   7.426 -10.367  0.00  0.00    +0.000 C 
ATOM     32  O   UNL     1       6.870   8.449 -10.568  0.00  0.00    +0.000 OA
ATOM     33  H   UNL     1       4.929   6.432  -9.111  0.00  0.00    +0.000 HD
BRANCH  31  34
ATOM     34  C   UNL     1       6.508   6.136 -11.173  0.00  0.00    +0.000 C 
BRANCH  34  35
ATOM     35  N   UNL     1       5.688   6.171 -12.405  0.00  0.00    +0.000 NA
ATOM     36  H   UNL     1       5.939   7.011 -12.933  0.00  0.00    +0.000 HD
ATOM     37  H   UNL     1       4.708   6.304 -12.144  0.00  0.00    +0.000 HD
ENDBRANCH  34  35
BRANCH  34  38
ATOM     38  C   UNL     1       7.990   6.071 -11.567  0.00  0.00    +0.000 C 
BRANCH  38  39
ATOM     39  C   UNL     1       8.887   5.863 -10.345  0.00  0.00    +0.000 C 
BRANCH  39  40
ATOM     40  O   UNL     1       8.521   4.702  -9.603  0.00  0.00    +0.000 OA
BRANCH  40  41
ATOM     41  C   UNL     1       8.802   3.486 -10.303  0.00  0.00    +0.000 C 
BRANCH  41  42
ATOM     42  C   UNL     1       8.300   2.328  -9.463  0.00  0.00    +0.000 C 
BRANCH  42  43
ATOM     43  O   UNL     1       9.000   2.167  -8.238  0.00  0.00    +0.000 OA
ATOM     44  H   UNL     1       9.930   2.407  -8.387  0.00  0.00    +0.000 HD
ENDBRANCH  42  43
ENDBRANCH  41  42
ENDBRANCH  40  41
ENDBRANCH  39  40
ENDBRANCH  38  39
ENDBRANCH  34  38
ENDBRANCH  31  34
ENDBRANCH  29  30
ENDBRANCH  23  24
ENDBRANCH   1  23
TORSDOF 19
