REMARK  Name = 
REMARK  20 active torsions:
REMARK  status: ('A' for Active; 'I' for Inactive)
REMARK    1  A    between atoms: C_1  and  C_2
REMARK    2  A    between atoms: C_2  and  C_3
REMARK    3  A    between atoms: C_7  and  O_8
REMARK    4  A    between atoms: C_7  and  C_20
REMARK    5  A    between atoms: O_8  and  C_9
REMARK    6  A    between atoms: C_9  and  C_11
REMARK    7  A    between atoms: C_11  and  O_12
REMARK    8  A    between atoms: O_12  and  C_13
REMARK    9  A    between atoms: C_18  and  O_19
REMARK   10  A    between atoms: C_20  and  O_22
REMARK   11  A    between atoms: O_22  and  C_23
REMARK   12  A    between atoms: C_28  and  N_29
REMARK   13  A    between atoms: C_30  and  C_32
REMARK   14  A    between atoms: C_32  and  N_33
REMARK   15  A    between atoms: C_32  and  C_34
REMARK   16  A    between atoms: C_34  and  C_35
REMARK   17  A    between atoms: C_35  and  O_36
REMARK   18  A    between atoms: O_36  and  C_37
REMARK   19  A    between atoms: C_37  and  C_38
REMARK   20  A    between atoms: C_38  and  O_39
REMARK                            x       y       z     vdW  Elec       q    Type
REMARK                         _______ _______ _______ _____ _____    ______ ____
ROOT
ATOM      1  C   UNL     1       2.580   0.856  -3.316  0.00  0.00    +0.000 C 
ATOM      2  O   UNL     1       1.805   0.610  -4.231  0.00  0.00    +0.000 OA
ENDROOT
BRANCH   1   7
ATOM      3  C   UNL     1       2.964   1.311  -0.771  0.00  0.00    +0.000 C 
ATOM      4  C   UNL     1       2.953   2.586   0.084  0.00  0.00    +0.000 C 
ATOM      5  C   UNL     1       3.028   3.741  -0.916  0.00  0.00    +0.000 C 
ATOM      6  C   UNL     1       2.940   3.109  -2.310  0.00  0.00    +0.000 C 
ATOM      7  C   UNL     1       2.255   1.746  -2.084  0.00  0.00    +0.000 C 
BRANCH   3   9
ATOM      8  C   UNL     1       3.209  -0.313   1.168  0.00  0.00    +0.000 C 
ATOM      9  C   UNL     1       2.387   0.086  -0.057  0.00  0.00    +0.000 C 
ENDBRANCH   3   9
BRANCH   7  10
ATOM     10  O   UNL     1       0.884   2.147  -1.864  0.00  0.00    +0.000 OA
BRANCH  10  11
ATOM     11  C   UNL     1      -0.174   1.335  -2.088  0.00  0.00    +0.000 C 
ATOM     12  O   UNL     1      -0.121   0.137  -2.322  0.00  0.00    +0.000 OA
BRANCH  11  13
ATOM     13  C   UNL     1      -1.474   2.140  -1.932  0.00  0.00    +0.000 C 
BRANCH  13  14
ATOM     14  O   UNL     1      -1.506   3.493  -2.371  0.00  0.00    +0.000 OA
BRANCH  14  15
ATOM     15  C   UNL     1      -1.299   3.712  -3.778  0.00  0.00    +0.000 C 
ATOM     16  C   UNL     1      -2.410   3.072  -4.622  0.00  0.00    +0.000 C 
ATOM     17  C   UNL     1      -2.314   3.448  -6.096  0.00  0.00    +0.000 C 
ATOM     18  C   UNL     1      -2.310   4.959  -6.291  0.00  0.00    +0.000 C 
ATOM     19  C   UNL     1      -1.185   5.607  -5.498  0.00  0.00    +0.000 C 
ATOM     20  C   UNL     1      -1.253   5.247  -4.016  0.00  0.00    +0.000 C 
BRANCH  20  21
ATOM     21  O   UNL     1      -0.125   5.847  -3.366  0.00  0.00    +0.000 OA
ATOM     22  H   UNL     1       0.630   5.241  -3.455  0.00  0.00    +0.000 HD
ENDBRANCH  20  21
ENDBRANCH  14  15
ENDBRANCH  13  14
ENDBRANCH  11  13
ENDBRANCH  10  11
ENDBRANCH   7  10
ENDBRANCH   1   7
BRANCH   1  23
ATOM     23  O   UNL     1       3.877   0.424  -3.288  0.00  0.00    +0.000 OA
BRANCH  23  24
ATOM     24  C   UNL     1       4.230  -0.635  -4.209  0.00  0.00    +0.000 C 
ATOM     25  C   UNL     1       3.891  -1.952  -3.508  0.00  0.00    +0.000 C 
ATOM     26  C   UNL     1       4.441  -3.145  -4.263  0.00  0.00    +0.000 C 
ATOM     27  O   UNL     1       5.848  -3.015  -4.423  0.00  0.00    +0.000 OA
ATOM     28  C   UNL     1       6.200  -1.874  -5.201  0.00  0.00    +0.000 C 
ATOM     29  C   UNL     1       5.738  -0.558  -4.542  0.00  0.00    +0.000 C 
BRANCH  29  30
ATOM     30  N   UNL     1       6.056   0.579  -5.424  0.00  0.00    +0.000 N 
ATOM     31  C   UNL     1       7.065   1.478  -5.130  0.00  0.00    +0.000 C 
ATOM     32  O   UNL     1       7.673   1.470  -4.052  0.00  0.00    +0.000 OA
ATOM     33  H   UNL     1       5.650   0.604  -6.349  0.00  0.00    +0.000 HD
BRANCH  31  34
ATOM     34  C   UNL     1       7.439   2.440  -6.267  0.00  0.00    +0.000 C 
BRANCH  34  35
ATOM     35  N   UNL     1       7.771   3.766  -5.699  0.00  0.00    +0.000 NA
ATOM     36  H   UNL     1       8.579   3.648  -5.077  0.00  0.00    +0.000 HD
ATOM     37  H   UNL     1       7.014   4.046  -5.071  0.00  0.00    +0.000 HD
ENDBRANCH  34  35
BRANCH  34  38
ATOM     38  C   UNL     1       8.668   1.907  -7.019  0.00  0.00    +0.000 C 
BRANCH  38  39
ATOM     39  C   UNL     1       8.359   0.665  -7.854  0.00  0.00    +0.000 C 
BRANCH  39  40
ATOM     40  O   UNL     1       7.243   0.857  -8.731  0.00  0.00    +0.000 OA
BRANCH  40  41
ATOM     41  C   UNL     1       7.535   1.794  -9.784  0.00  0.00    +0.000 C 
BRANCH  41  42
ATOM     42  C   UNL     1       6.328   1.898 -10.707  0.00  0.00    +0.000 C 
BRANCH  42  43
ATOM     43  O   UNL     1       5.183   2.317  -9.968  0.00  0.00    +0.000 OA
ATOM     44  H   UNL     1       5.111   1.688  -9.228  0.00  0.00    +0.000 HD
ENDBRANCH  42  43
ENDBRANCH  41  42
ENDBRANCH  40  41
ENDBRANCH  39  40
ENDBRANCH  38  39
ENDBRANCH  34  38
ENDBRANCH  31  34
ENDBRANCH  29  30
ENDBRANCH  23  24
ENDBRANCH   1  23
TORSDOF 19
