REMARK  Name = 
REMARK  20 active torsions:
REMARK  status: ('A' for Active; 'I' for Inactive)
REMARK    1  A    between atoms: C_1  and  C_2
REMARK    2  A    between atoms: C_2  and  C_3
REMARK    3  A    between atoms: C_7  and  O_8
REMARK    4  A    between atoms: C_7  and  C_20
REMARK    5  A    between atoms: O_8  and  C_9
REMARK    6  A    between atoms: C_9  and  C_11
REMARK    7  A    between atoms: C_11  and  O_12
REMARK    8  A    between atoms: O_12  and  C_13
REMARK    9  A    between atoms: C_18  and  O_19
REMARK   10  A    between atoms: C_20  and  O_22
REMARK   11  A    between atoms: O_22  and  C_23
REMARK   12  A    between atoms: C_28  and  N_29
REMARK   13  A    between atoms: C_30  and  C_32
REMARK   14  A    between atoms: C_32  and  N_33
REMARK   15  A    between atoms: C_32  and  C_34
REMARK   16  A    between atoms: C_34  and  C_35
REMARK   17  A    between atoms: C_35  and  O_36
REMARK   18  A    between atoms: O_36  and  C_37
REMARK   19  A    between atoms: C_37  and  C_38
REMARK   20  A    between atoms: C_38  and  O_39
REMARK                            x       y       z     vdW  Elec       q    Type
REMARK                         _______ _______ _______ _____ _____    ______ ____
ROOT
ATOM      1  C   UNL     1       5.142   0.998  -1.150  0.00  0.00    +0.000 C 
ATOM      2  O   UNL     1       5.100   0.012  -1.874  0.00  0.00    +0.000 OA
ENDROOT
BRANCH   1   7
ATOM      3  C   UNL     1       3.158   1.344   0.309  0.00  0.00    +0.000 C 
ATOM      4  C   UNL     1       2.271   2.517   0.727  0.00  0.00    +0.000 C 
ATOM      5  C   UNL     1       3.095   3.767   0.428  0.00  0.00    +0.000 C 
ATOM      6  C   UNL     1       4.178   3.363  -0.579  0.00  0.00    +0.000 C 
ATOM      7  C   UNL     1       3.902   1.900  -0.936  0.00  0.00    +0.000 C 
BRANCH   3   9
ATOM      8  C   UNL     1       1.606  -0.553   1.112  0.00  0.00    +0.000 C 
ATOM      9  C   UNL     1       2.386   0.051  -0.029  0.00  0.00    +0.000 C 
ENDBRANCH   3   9
BRANCH   7  10
ATOM     10  O   UNL     1       2.953   1.820  -2.029  0.00  0.00    +0.000 OA
BRANCH  10  11
ATOM     11  C   UNL     1       3.450   1.774  -3.296  0.00  0.00    +0.000 C 
ATOM     12  O   UNL     1       4.534   2.232  -3.627  0.00  0.00    +0.000 OA
BRANCH  11  13
ATOM     13  C   UNL     1       2.494   0.968  -4.186  0.00  0.00    +0.000 C 
BRANCH  13  14
ATOM     14  O   UNL     1       3.021   0.288  -5.321  0.00  0.00    +0.000 OA
BRANCH  14  15
ATOM     15  C   UNL     1       4.018  -0.715  -5.036  0.00  0.00    +0.000 C 
ATOM     16  C   UNL     1       3.446  -1.860  -4.184  0.00  0.00    +0.000 C 
ATOM     17  C   UNL     1       4.406  -3.040  -4.070  0.00  0.00    +0.000 C 
ATOM     18  C   UNL     1       4.861  -3.546  -5.432  0.00  0.00    +0.000 C 
ATOM     19  C   UNL     1       5.496  -2.415  -6.240  0.00  0.00    +0.000 C 
ATOM     20  C   UNL     1       4.522  -1.248  -6.401  0.00  0.00    +0.000 C 
BRANCH  20  21
ATOM     21  O   UNL     1       3.415  -1.713  -7.187  0.00  0.00    +0.000 OA
ATOM     22  H   UNL     1       2.650  -1.171  -6.914  0.00  0.00    +0.000 HD
ENDBRANCH  20  21
ENDBRANCH  14  15
ENDBRANCH  13  14
ENDBRANCH  11  13
ENDBRANCH  10  11
ENDBRANCH   7  10
ENDBRANCH   1   7
BRANCH   1  23
ATOM     23  O   UNL     1       6.190   1.370  -0.378  0.00  0.00    +0.000 OA
BRANCH  23  24
ATOM     24  C   UNL     1       7.524   0.796  -0.486  0.00  0.00    +0.000 C 
ATOM     25  C   UNL     1       8.429   1.947  -0.947  0.00  0.00    +0.000 C 
ATOM     26  C   UNL     1       9.864   1.494  -1.156  0.00  0.00    +0.000 C 
ATOM     27  O   UNL     1       9.924   0.382  -2.046  0.00  0.00    +0.000 OA
ATOM     28  C   UNL     1       9.221  -0.754  -1.530  0.00  0.00    +0.000 C 
ATOM     29  C   UNL     1       7.728  -0.433  -1.402  0.00  0.00    +0.000 C 
BRANCH  29  30
ATOM     30  N   UNL     1       6.904  -1.585  -1.029  0.00  0.00    +0.000 N 
ATOM     31  C   UNL     1       7.036  -2.314   0.135  0.00  0.00    +0.000 C 
ATOM     32  O   UNL     1       7.977  -2.168   0.907  0.00  0.00    +0.000 OA
ATOM     33  H   UNL     1       5.972  -1.556  -1.441  0.00  0.00    +0.000 HD
BRANCH  31  34
ATOM     34  C   UNL     1       5.882  -3.334   0.331  0.00  0.00    +0.000 C 
BRANCH  34  35
ATOM     35  N   UNL     1       5.893  -4.287  -0.806  0.00  0.00    +0.000 NA
ATOM     36  H   UNL     1       6.803  -4.750  -0.837  0.00  0.00    +0.000 HD
ATOM     37  H   UNL     1       5.830  -3.767  -1.679  0.00  0.00    +0.000 HD
ENDBRANCH  34  35
BRANCH  34  38
ATOM     38  C   UNL     1       5.983  -4.134   1.630  0.00  0.00    +0.000 C 
BRANCH  38  39
ATOM     39  C   UNL     1       5.865  -3.286   2.895  0.00  0.00    +0.000 C 
BRANCH  39  40
ATOM     40  O   UNL     1       4.635  -2.551   2.930  0.00  0.00    +0.000 OA
BRANCH  40  41
ATOM     41  C   UNL     1       4.550  -1.814   4.164  0.00  0.00    +0.000 C 
BRANCH  41  42
ATOM     42  C   UNL     1       3.221  -1.076   4.256  0.00  0.00    +0.000 C 
BRANCH  42  43
ATOM     43  O   UNL     1       2.137  -1.982   4.067  0.00  0.00    +0.000 OA
ATOM     44  H   UNL     1       2.401  -2.561   3.324  0.00  0.00    +0.000 HD
ENDBRANCH  42  43
ENDBRANCH  41  42
ENDBRANCH  40  41
ENDBRANCH  39  40
ENDBRANCH  38  39
ENDBRANCH  34  38
ENDBRANCH  31  34
ENDBRANCH  29  30
ENDBRANCH  23  24
ENDBRANCH   1  23
TORSDOF 19
