REMARK  Name = 
REMARK  20 active torsions:
REMARK  status: ('A' for Active; 'I' for Inactive)
REMARK    1  A    between atoms: C_1  and  C_2
REMARK    2  A    between atoms: C_2  and  C_3
REMARK    3  A    between atoms: C_7  and  O_8
REMARK    4  A    between atoms: C_7  and  C_20
REMARK    5  A    between atoms: O_8  and  C_9
REMARK    6  A    between atoms: C_9  and  C_11
REMARK    7  A    between atoms: C_11  and  O_12
REMARK    8  A    between atoms: O_12  and  C_13
REMARK    9  A    between atoms: C_18  and  O_19
REMARK   10  A    between atoms: C_20  and  O_22
REMARK   11  A    between atoms: O_22  and  C_23
REMARK   12  A    between atoms: C_28  and  N_29
REMARK   13  A    between atoms: C_30  and  C_32
REMARK   14  A    between atoms: C_32  and  N_33
REMARK   15  A    between atoms: C_32  and  C_34
REMARK   16  A    between atoms: C_34  and  C_35
REMARK   17  A    between atoms: C_35  and  O_36
REMARK   18  A    between atoms: O_36  and  C_37
REMARK   19  A    between atoms: C_37  and  C_38
REMARK   20  A    between atoms: C_38  and  O_39
REMARK                            x       y       z     vdW  Elec       q    Type
REMARK                         _______ _______ _______ _____ _____    ______ ____
ROOT
ATOM      1  C   UNL     1       6.024   5.868   4.548  0.00  0.00    +0.000 C 
ATOM      2  O   UNL     1       5.491   5.777   5.646  0.00  0.00    +0.000 OA
ENDROOT
BRANCH   1   7
ATOM      3  C   UNL     1       5.404   8.355   4.463  0.00  0.00    +0.000 C 
ATOM      4  C   UNL     1       6.087   9.600   3.912  0.00  0.00    +0.000 C 
ATOM      5  C   UNL     1       7.523   9.165   3.670  0.00  0.00    +0.000 C 
ATOM      6  C   UNL     1       7.531   7.643   3.642  0.00  0.00    +0.000 C 
ATOM      7  C   UNL     1       6.044   7.170   3.649  0.00  0.00    +0.000 C 
BRANCH   3   9
ATOM      8  C   UNL     1       3.320   9.638   5.226  0.00  0.00    +0.000 C 
ATOM      9  C   UNL     1       3.867   8.475   4.399  0.00  0.00    +0.000 C 
ENDBRANCH   3   9
BRANCH   7  10
ATOM     10  O   UNL     1       5.519   7.254   2.295  0.00  0.00    +0.000 OA
BRANCH  10  11
ATOM     11  C   UNL     1       5.518   6.219   1.400  0.00  0.00    +0.000 C 
ATOM     12  O   UNL     1       5.982   5.100   1.594  0.00  0.00    +0.000 OA
BRANCH  11  13
ATOM     13  C   UNL     1       4.768   6.532   0.084  0.00  0.00    +0.000 C 
BRANCH  13  14
ATOM     14  O   UNL     1       5.379   7.439  -0.827  0.00  0.00    +0.000 OA
BRANCH  14  15
ATOM     15  C   UNL     1       4.640   7.606  -2.065  0.00  0.00    +0.000 C 
ATOM     16  C   UNL     1       4.776   6.418  -3.030  0.00  0.00    +0.000 C 
ATOM     17  C   UNL     1       6.203   6.219  -3.546  0.00  0.00    +0.000 C 
ATOM     18  C   UNL     1       6.835   7.496  -4.099  0.00  0.00    +0.000 C 
ATOM     19  C   UNL     1       6.634   8.707  -3.195  0.00  0.00    +0.000 C 
ATOM     20  C   UNL     1       5.173   8.869  -2.774  0.00  0.00    +0.000 C 
BRANCH  20  21
ATOM     21  O   UNL     1       5.056   9.994  -1.907  0.00  0.00    +0.000 OA
ATOM     22  H   UNL     1       5.405   9.695  -1.043  0.00  0.00    +0.000 HD
ENDBRANCH  20  21
ENDBRANCH  14  15
ENDBRANCH  13  14
ENDBRANCH  11  13
ENDBRANCH  10  11
ENDBRANCH   7  10
ENDBRANCH   1   7
BRANCH   1  23
ATOM     23  O   UNL     1       6.745   4.852   3.975  0.00  0.00    +0.000 OA
BRANCH  23  24
ATOM     24  C   UNL     1       6.661   3.511   4.536  0.00  0.00    +0.000 C 
ATOM     25  C   UNL     1       7.436   3.468   5.861  0.00  0.00    +0.000 C 
ATOM     26  C   UNL     1       7.809   2.054   6.270  0.00  0.00    +0.000 C 
ATOM     27  O   UNL     1       8.565   1.440   5.231  0.00  0.00    +0.000 OA
ATOM     28  C   UNL     1       7.750   1.212   4.084  0.00  0.00    +0.000 C 
ATOM     29  C   UNL     1       7.241   2.528   3.472  0.00  0.00    +0.000 C 
BRANCH  29  30
ATOM     30  N   UNL     1       6.344   2.279   2.331  0.00  0.00    +0.000 N 
ATOM     31  C   UNL     1       5.124   1.647   2.457  0.00  0.00    +0.000 C 
ATOM     32  O   UNL     1       4.753   1.113   3.493  0.00  0.00    +0.000 OA
ATOM     33  H   UNL     1       6.531   2.802   1.481  0.00  0.00    +0.000 HD
BRANCH  31  34
ATOM     34  C   UNL     1       4.267   1.620   1.154  0.00  0.00    +0.000 C 
BRANCH  34  35
ATOM     35  N   UNL     1       4.688   0.473   0.323  0.00  0.00    +0.000 NA
ATOM     36  H   UNL     1       4.530  -0.386   0.855  0.00  0.00    +0.000 HD
ATOM     37  H   UNL     1       5.692   0.520   0.162  0.00  0.00    +0.000 HD
ENDBRANCH  34  35
BRANCH  34  38
ATOM     38  C   UNL     1       2.768   1.467   1.468  0.00  0.00    +0.000 C 
BRANCH  38  39
ATOM     39  C   UNL     1       2.228   2.605   2.322  0.00  0.00    +0.000 C 
BRANCH  39  40
ATOM     40  O   UNL     1       2.402   3.849   1.642  0.00  0.00    +0.000 OA
BRANCH  40  41
ATOM     41  C   UNL     1       1.809   4.949   2.352  0.00  0.00    +0.000 C 
BRANCH  41  42
ATOM     42  C   UNL     1       2.474   5.133   3.704  0.00  0.00    +0.000 C 
BRANCH  42  43
ATOM     43  O   UNL     1       3.858   5.215   3.456  0.00  0.00    +0.000 OA
ATOM     44  H   UNL     1       4.109   4.463   2.882  0.00  0.00    +0.000 HD
ENDBRANCH  42  43
ENDBRANCH  41  42
ENDBRANCH  40  41
ENDBRANCH  39  40
ENDBRANCH  38  39
ENDBRANCH  34  38
ENDBRANCH  31  34
ENDBRANCH  29  30
ENDBRANCH  23  24
ENDBRANCH   1  23
TORSDOF 19
