REMARK  Name = 
REMARK  20 active torsions:
REMARK  status: ('A' for Active; 'I' for Inactive)
REMARK    1  A    between atoms: C_1  and  C_2
REMARK    2  A    between atoms: C_2  and  C_3
REMARK    3  A    between atoms: C_7  and  O_8
REMARK    4  A    between atoms: C_7  and  C_20
REMARK    5  A    between atoms: O_8  and  C_9
REMARK    6  A    between atoms: C_9  and  C_11
REMARK    7  A    between atoms: C_11  and  O_12
REMARK    8  A    between atoms: O_12  and  C_13
REMARK    9  A    between atoms: C_18  and  O_19
REMARK   10  A    between atoms: C_20  and  O_22
REMARK   11  A    between atoms: O_22  and  C_23
REMARK   12  A    between atoms: C_28  and  N_29
REMARK   13  A    between atoms: C_30  and  C_32
REMARK   14  A    between atoms: C_32  and  N_33
REMARK   15  A    between atoms: C_32  and  C_34
REMARK   16  A    between atoms: C_34  and  C_35
REMARK   17  A    between atoms: C_35  and  O_36
REMARK   18  A    between atoms: O_36  and  C_37
REMARK   19  A    between atoms: C_37  and  C_38
REMARK   20  A    between atoms: C_38  and  O_39
REMARK                            x       y       z     vdW  Elec       q    Type
REMARK                         _______ _______ _______ _____ _____    ______ ____
ROOT
ATOM      1  C   UNL     1      -3.477   3.869  -9.837  0.00  0.00    +0.000 C 
ATOM      2  O   UNL     1      -3.715   4.061 -11.023  0.00  0.00    +0.000 OA
ENDROOT
BRANCH   1   7
ATOM      3  C   UNL     1      -1.218   4.981 -10.175  0.00  0.00    +0.000 C 
ATOM      4  C   UNL     1      -0.155   5.596  -9.251  0.00  0.00    +0.000 C 
ATOM      5  C   UNL     1      -0.880   5.847  -7.930  0.00  0.00    +0.000 C 
ATOM      6  C   UNL     1      -2.235   5.144  -8.053  0.00  0.00    +0.000 C 
ATOM      7  C   UNL     1      -2.087   4.114  -9.192  0.00  0.00    +0.000 C 
BRANCH   3   9
ATOM      8  C   UNL     1       0.188   5.069 -12.312  0.00  0.00    +0.000 C 
ATOM      9  C   UNL     1      -0.614   4.199 -11.354  0.00  0.00    +0.000 C 
ENDBRANCH   3   9
BRANCH   7  10
ATOM     10  O   UNL     1      -1.210   3.031  -8.807  0.00  0.00    +0.000 OA
BRANCH  10  11
ATOM     11  C   UNL     1      -1.613   1.736  -8.799  0.00  0.00    +0.000 C 
ATOM     12  O   UNL     1      -2.769   1.360  -8.662  0.00  0.00    +0.000 OA
BRANCH  11  13
ATOM     13  C   UNL     1      -0.466   0.774  -9.169  0.00  0.00    +0.000 C 
BRANCH  13  14
ATOM     14  O   UNL     1       0.855   1.226  -8.917  0.00  0.00    +0.000 OA
BRANCH  14  15
ATOM     15  C   UNL     1       1.900   0.284  -9.231  0.00  0.00    +0.000 C 
ATOM     16  C   UNL     1       3.216   0.961  -8.815  0.00  0.00    +0.000 C 
ATOM     17  C   UNL     1       3.463   2.219  -9.651  0.00  0.00    +0.000 C 
ATOM     18  C   UNL     1       3.498   1.910 -11.145  0.00  0.00    +0.000 C 
ATOM     19  C   UNL     1       2.285   1.109 -11.620  0.00  0.00    +0.000 C 
ATOM     20  C   UNL     1       1.981  -0.100 -10.730  0.00  0.00    +0.000 C 
BRANCH  20  21
ATOM     21  O   UNL     1       2.956  -1.125 -10.944  0.00  0.00    +0.000 OA
ATOM     22  H   UNL     1       3.844  -0.735 -10.886  0.00  0.00    +0.000 HD
ENDBRANCH  20  21
ENDBRANCH  14  15
ENDBRANCH  13  14
ENDBRANCH  11  13
ENDBRANCH  10  11
ENDBRANCH   7  10
ENDBRANCH   1   7
BRANCH   1  23
ATOM     23  O   UNL     1      -4.432   3.445  -8.945  0.00  0.00    +0.000 OA
BRANCH  23  24
ATOM     24  C   UNL     1      -5.723   2.994  -9.455  0.00  0.00    +0.000 C 
ATOM     25  C   UNL     1      -5.577   1.829 -10.447  0.00  0.00    +0.000 C 
ATOM     26  C   UNL     1      -6.890   1.506 -11.131  0.00  0.00    +0.000 C 
ATOM     27  O   UNL     1      -7.388   2.669 -11.787  0.00  0.00    +0.000 OA
ATOM     28  C   UNL     1      -7.781   3.659 -10.840  0.00  0.00    +0.000 C 
ATOM     29  C   UNL     1      -6.592   4.162  -9.996  0.00  0.00    +0.000 C 
BRANCH  29  30
ATOM     30  N   UNL     1      -7.022   5.074  -8.928  0.00  0.00    +0.000 N 
ATOM     31  C   UNL     1      -7.964   4.720  -7.987  0.00  0.00    +0.000 C 
ATOM     32  O   UNL     1      -8.531   3.630  -7.965  0.00  0.00    +0.000 OA
ATOM     33  H   UNL     1      -6.408   5.850  -8.709  0.00  0.00    +0.000 HD
BRANCH  31  34
ATOM     34  C   UNL     1      -8.280   5.811  -6.951  0.00  0.00    +0.000 C 
BRANCH  34  35
ATOM     35  N   UNL     1      -9.726   6.105  -6.981  0.00  0.00    +0.000 NA
ATOM     36  H   UNL     1     -10.229   5.231  -6.814  0.00  0.00    +0.000 HD
ATOM     37  H   UNL     1      -9.987   6.378  -7.930  0.00  0.00    +0.000 HD
ENDBRANCH  34  35
BRANCH  34  38
ATOM     38  C   UNL     1      -7.884   5.287  -5.568  0.00  0.00    +0.000 C 
BRANCH  38  39
ATOM     39  C   UNL     1      -6.367   5.102  -5.464  0.00  0.00    +0.000 C 
BRANCH  39  40
ATOM     40  O   UNL     1      -5.653   6.301  -5.798  0.00  0.00    +0.000 OA
BRANCH  40  41
ATOM     41  C   UNL     1      -5.921   7.360  -4.868  0.00  0.00    +0.000 C 
BRANCH  41  42
ATOM     42  C   UNL     1      -5.127   8.600  -5.254  0.00  0.00    +0.000 C 
BRANCH  42  43
ATOM     43  O   UNL     1      -5.474   9.010  -6.576  0.00  0.00    +0.000 OA
ATOM     44  H   UNL     1      -5.310   8.232  -7.139  0.00  0.00    +0.000 HD
ENDBRANCH  42  43
ENDBRANCH  41  42
ENDBRANCH  40  41
ENDBRANCH  39  40
ENDBRANCH  38  39
ENDBRANCH  34  38
ENDBRANCH  31  34
ENDBRANCH  29  30
ENDBRANCH  23  24
ENDBRANCH   1  23
TORSDOF 19
