REMARK  Name = 
REMARK  20 active torsions:
REMARK  status: ('A' for Active; 'I' for Inactive)
REMARK    1  A    between atoms: C_1  and  C_2
REMARK    2  A    between atoms: C_2  and  C_3
REMARK    3  A    between atoms: C_7  and  O_8
REMARK    4  A    between atoms: C_7  and  C_20
REMARK    5  A    between atoms: O_8  and  C_9
REMARK    6  A    between atoms: C_9  and  C_11
REMARK    7  A    between atoms: C_11  and  O_12
REMARK    8  A    between atoms: O_12  and  C_13
REMARK    9  A    between atoms: C_18  and  O_19
REMARK   10  A    between atoms: C_20  and  O_22
REMARK   11  A    between atoms: O_22  and  C_23
REMARK   12  A    between atoms: C_28  and  N_29
REMARK   13  A    between atoms: C_30  and  C_32
REMARK   14  A    between atoms: C_32  and  N_33
REMARK   15  A    between atoms: C_32  and  C_34
REMARK   16  A    between atoms: C_34  and  C_35
REMARK   17  A    between atoms: C_35  and  O_36
REMARK   18  A    between atoms: O_36  and  C_37
REMARK   19  A    between atoms: C_37  and  C_38
REMARK   20  A    between atoms: C_38  and  O_39
REMARK                            x       y       z     vdW  Elec       q    Type
REMARK                         _______ _______ _______ _____ _____    ______ ____
ROOT
ATOM      1  C   UNL     1       2.326  -4.493   0.950  0.00  0.00    +0.000 C 
ATOM      2  O   UNL     1       2.737  -5.639   0.960  0.00  0.00    +0.000 OA
ENDROOT
BRANCH   1   7
ATOM      3  C   UNL     1       1.559  -2.692  -0.741  0.00  0.00    +0.000 C 
ATOM      4  C   UNL     1       0.764  -2.804  -2.049  0.00  0.00    +0.000 C 
ATOM      5  C   UNL     1       0.773  -4.273  -2.395  0.00  0.00    +0.000 C 
ATOM      6  C   UNL     1       0.937  -5.019  -1.074  0.00  0.00    +0.000 C 
ATOM      7  C   UNL     1       1.133  -3.970   0.061  0.00  0.00    +0.000 C 
BRANCH   3   9
ATOM      8  C   UNL     1       1.750  -0.141  -0.873  0.00  0.00    +0.000 C 
ATOM      9  C   UNL     1       1.258  -1.339  -0.062  0.00  0.00    +0.000 C 
ENDBRANCH   3   9
BRANCH   7  10
ATOM     10  O   UNL     1      -0.151  -3.654   0.658  0.00  0.00    +0.000 OA
BRANCH  10  11
ATOM     11  C   UNL     1      -0.480  -4.166   1.870  0.00  0.00    +0.000 C 
ATOM     12  O   UNL     1       0.189  -4.984   2.489  0.00  0.00    +0.000 OA
BRANCH  11  13
ATOM     13  C   UNL     1      -1.706  -3.490   2.510  0.00  0.00    +0.000 C 
BRANCH  13  14
ATOM     14  O   UNL     1      -2.847  -3.143   1.742  0.00  0.00    +0.000 OA
BRANCH  14  15
ATOM     15  C   UNL     1      -3.928  -2.581   2.531  0.00  0.00    +0.000 C 
ATOM     16  C   UNL     1      -4.466  -3.571   3.583  0.00  0.00    +0.000 C 
ATOM     17  C   UNL     1      -4.934  -4.854   2.902  0.00  0.00    +0.000 C 
ATOM     18  C   UNL     1      -6.028  -4.577   1.871  0.00  0.00    +0.000 C 
ATOM     19  C   UNL     1      -5.678  -3.444   0.898  0.00  0.00    +0.000 C 
ATOM     20  C   UNL     1      -5.095  -2.202   1.587  0.00  0.00    +0.000 C 
BRANCH  20  21
ATOM     21  O   UNL     1      -6.125  -1.501   2.294  0.00  0.00    +0.000 OA
ATOM     22  H   UNL     1      -6.655  -2.140   2.800  0.00  0.00    +0.000 HD
ENDBRANCH  20  21
ENDBRANCH  14  15
ENDBRANCH  13  14
ENDBRANCH  11  13
ENDBRANCH  10  11
ENDBRANCH   7  10
ENDBRANCH   1   7
BRANCH   1  23
ATOM     23  O   UNL     1       2.878  -3.483   1.688  0.00  0.00    +0.000 OA
BRANCH  23  24
ATOM     24  C   UNL     1       4.039  -3.742   2.516  0.00  0.00    +0.000 C 
ATOM     25  C   UNL     1       5.323  -3.966   1.712  0.00  0.00    +0.000 C 
ATOM     26  C   UNL     1       6.496  -4.073   2.679  0.00  0.00    +0.000 C 
ATOM     27  O   UNL     1       6.297  -5.169   3.563  0.00  0.00    +0.000 OA
ATOM     28  C   UNL     1       5.145  -5.012   4.393  0.00  0.00    +0.000 C 
ATOM     29  C   UNL     1       3.839  -4.836   3.589  0.00  0.00    +0.000 C 
BRANCH  29  30
ATOM     30  N   UNL     1       2.727  -4.493   4.474  0.00  0.00    +0.000 N 
ATOM     31  C   UNL     1       2.245  -5.395   5.393  0.00  0.00    +0.000 C 
ATOM     32  O   UNL     1       2.695  -6.531   5.523  0.00  0.00    +0.000 OA
ATOM     33  H   UNL     1       2.217  -3.632   4.318  0.00  0.00    +0.000 HD
BRANCH  31  34
ATOM     34  C   UNL     1       1.078  -4.864   6.245  0.00  0.00    +0.000 C 
BRANCH  34  35
ATOM     35  N   UNL     1      -0.192  -5.309   5.627  0.00  0.00    +0.000 NA
ATOM     36  H   UNL     1      -0.241  -6.327   5.727  0.00  0.00    +0.000 HD
ATOM     37  H   UNL     1      -0.113  -5.179   4.612  0.00  0.00    +0.000 HD
ENDBRANCH  34  35
BRANCH  34  38
ATOM     38  C   UNL     1       1.205  -5.400   7.678  0.00  0.00    +0.000 C 
BRANCH  38  39
ATOM     39  C   UNL     1       2.493  -4.932   8.359  0.00  0.00    +0.000 C 
BRANCH  39  40
ATOM     40  O   UNL     1       2.521  -3.502   8.399  0.00  0.00    +0.000 OA
BRANCH  40  41
ATOM     41  C   UNL     1       3.704  -3.029   9.060  0.00  0.00    +0.000 C 
BRANCH  41  42
ATOM     42  C   UNL     1       3.663  -1.505   9.100  0.00  0.00    +0.000 C 
BRANCH  42  43
ATOM     43  O   UNL     1       2.523  -1.058   9.831  0.00  0.00    +0.000 OA
ATOM     44  H   UNL     1       1.763  -1.532   9.442  0.00  0.00    +0.000 HD
ENDBRANCH  42  43
ENDBRANCH  41  42
ENDBRANCH  40  41
ENDBRANCH  39  40
ENDBRANCH  38  39
ENDBRANCH  34  38
ENDBRANCH  31  34
ENDBRANCH  29  30
ENDBRANCH  23  24
ENDBRANCH   1  23
TORSDOF 19
