REMARK  Name = 
REMARK  20 active torsions:
REMARK  status: ('A' for Active; 'I' for Inactive)
REMARK    1  A    between atoms: C_1  and  C_2
REMARK    2  A    between atoms: C_2  and  C_3
REMARK    3  A    between atoms: C_7  and  O_8
REMARK    4  A    between atoms: C_7  and  C_20
REMARK    5  A    between atoms: O_8  and  C_9
REMARK    6  A    between atoms: C_9  and  C_11
REMARK    7  A    between atoms: C_11  and  O_12
REMARK    8  A    between atoms: O_12  and  C_13
REMARK    9  A    between atoms: C_18  and  O_19
REMARK   10  A    between atoms: C_20  and  O_22
REMARK   11  A    between atoms: O_22  and  C_23
REMARK   12  A    between atoms: C_28  and  N_29
REMARK   13  A    between atoms: C_30  and  C_32
REMARK   14  A    between atoms: C_32  and  N_33
REMARK   15  A    between atoms: C_32  and  C_34
REMARK   16  A    between atoms: C_34  and  C_35
REMARK   17  A    between atoms: C_35  and  O_36
REMARK   18  A    between atoms: O_36  and  C_37
REMARK   19  A    between atoms: C_37  and  C_38
REMARK   20  A    between atoms: C_38  and  O_39
REMARK                            x       y       z     vdW  Elec       q    Type
REMARK                         _______ _______ _______ _____ _____    ______ ____
ROOT
ATOM      1  C   UNL     1       4.275  -2.627   0.285  0.00  0.00    +0.000 C 
ATOM      2  O   UNL     1       4.411  -2.727   1.497  0.00  0.00    +0.000 OA
ENDROOT
BRANCH   1   7
ATOM      3  C   UNL     1       2.994  -1.093  -1.292  0.00  0.00    +0.000 C 
ATOM      4  C   UNL     1       2.062  -1.353  -2.478  0.00  0.00    +0.000 C 
ATOM      5  C   UNL     1       2.294  -2.804  -2.839  0.00  0.00    +0.000 C 
ATOM      6  C   UNL     1       2.732  -3.502  -1.554  0.00  0.00    +0.000 C 
ATOM      7  C   UNL     1       2.921  -2.413  -0.460  0.00  0.00    +0.000 C 
BRANCH   3   9
ATOM      8  C   UNL     1       3.455   0.602   0.587  0.00  0.00    +0.000 C 
ATOM      9  C   UNL     1       2.601   0.227  -0.612  0.00  0.00    +0.000 C 
ENDBRANCH   3   9
BRANCH   7  10
ATOM     10  O   UNL     1       1.761  -2.335   0.404  0.00  0.00    +0.000 OA
BRANCH  10  11
ATOM     11  C   UNL     1       1.456  -3.407   1.201  0.00  0.00    +0.000 C 
ATOM     12  O   UNL     1       2.028  -4.488   1.168  0.00  0.00    +0.000 OA
BRANCH  11  13
ATOM     13  C   UNL     1       0.266  -3.055   2.123  0.00  0.00    +0.000 C 
BRANCH  13  14
ATOM     14  O   UNL     1      -0.114  -3.923   3.189  0.00  0.00    +0.000 OA
BRANCH  14  15
ATOM     15  C   UNL     1       0.921  -4.248   4.129  0.00  0.00    +0.000 C 
ATOM     16  C   UNL     1       1.499  -3.013   4.831  0.00  0.00    +0.000 C 
ATOM     17  C   UNL     1       2.636  -3.419   5.762  0.00  0.00    +0.000 C 
ATOM     18  C   UNL     1       2.163  -4.407   6.822  0.00  0.00    +0.000 C 
ATOM     19  C   UNL     1       1.453  -5.610   6.210  0.00  0.00    +0.000 C 
ATOM     20  C   UNL     1       0.361  -5.213   5.212  0.00  0.00    +0.000 C 
BRANCH  20  21
ATOM     21  O   UNL     1      -0.155  -6.422   4.649  0.00  0.00    +0.000 OA
ATOM     22  H   UNL     1       0.151  -6.475   3.729  0.00  0.00    +0.000 HD
ENDBRANCH  20  21
ENDBRANCH  14  15
ENDBRANCH  13  14
ENDBRANCH  11  13
ENDBRANCH  10  11
ENDBRANCH   7  10
ENDBRANCH   1   7
BRANCH   1  23
ATOM     23  O   UNL     1       5.301  -2.659  -0.616  0.00  0.00    +0.000 OA
BRANCH  23  24
ATOM     24  C   UNL     1       6.642  -2.981  -0.162  0.00  0.00    +0.000 C 
ATOM     25  C   UNL     1       7.334  -1.729   0.381  0.00  0.00    +0.000 C 
ATOM     26  C   UNL     1       8.825  -1.974   0.539  0.00  0.00    +0.000 C 
ATOM     27  O   UNL     1       9.385  -2.278  -0.737  0.00  0.00    +0.000 OA
ATOM     28  C   UNL     1       8.920  -3.542  -1.211  0.00  0.00    +0.000 C 
ATOM     29  C   UNL     1       7.391  -3.558  -1.394  0.00  0.00    +0.000 C 
BRANCH  29  30
ATOM     30  N   UNL     1       6.888  -4.888  -1.773  0.00  0.00    +0.000 N 
ATOM     31  C   UNL     1       7.043  -5.966  -0.930  0.00  0.00    +0.000 C 
ATOM     32  O   UNL     1       7.684  -5.901   0.124  0.00  0.00    +0.000 OA
ATOM     33  H   UNL     1       6.241  -4.957  -2.547  0.00  0.00    +0.000 HD
BRANCH  31  34
ATOM     34  C   UNL     1       6.414  -7.290  -1.393  0.00  0.00    +0.000 C 
BRANCH  34  35
ATOM     35  N   UNL     1       7.499  -8.288  -1.513  0.00  0.00    +0.000 NA
ATOM     36  H   UNL     1       7.962  -8.349  -0.601  0.00  0.00    +0.000 HD
ATOM     37  H   UNL     1       8.216  -7.927  -2.142  0.00  0.00    +0.000 HD
ENDBRANCH  34  35
BRANCH  34  38
ATOM     38  C   UNL     1       5.427  -7.744  -0.311  0.00  0.00    +0.000 C 
BRANCH  38  39
ATOM     39  C   UNL     1       4.168  -6.873  -0.290  0.00  0.00    +0.000 C 
BRANCH  39  40
ATOM     40  O   UNL     1       3.512  -6.844  -1.563  0.00  0.00    +0.000 OA
BRANCH  40  41
ATOM     41  C   UNL     1       2.938  -8.115  -1.907  0.00  0.00    +0.000 C 
BRANCH  41  42
ATOM     42  C   UNL     1       2.175  -7.971  -3.217  0.00  0.00    +0.000 C 
BRANCH  42  43
ATOM     43  O   UNL     1       3.044  -7.461  -4.228  0.00  0.00    +0.000 OA
ATOM     44  H   UNL     1       3.471  -6.685  -3.820  0.00  0.00    +0.000 HD
ENDBRANCH  42  43
ENDBRANCH  41  42
ENDBRANCH  40  41
ENDBRANCH  39  40
ENDBRANCH  38  39
ENDBRANCH  34  38
ENDBRANCH  31  34
ENDBRANCH  29  30
ENDBRANCH  23  24
ENDBRANCH   1  23
TORSDOF 19
