MODEL 1
REMARK VINA RESULT:      -5.1      0.000      0.000
REMARK  Name = 
REMARK  6 active torsions:
REMARK  status: ('A' for Active; 'I' for Inactive)
REMARK    1  A    between atoms: C_1  and  S_2
REMARK    2  A    between atoms: S_2  and  N_5
REMARK    3  A    between atoms: C_6  and  O_7
REMARK    4  A    between atoms: C_6  and  C_8
REMARK    5  A    between atoms: C_8  and  C_9
REMARK    6  A    between atoms: C_11  and  N_12
REMARK                            x       y       z     vdW  Elec       q    Type
REMARK                         _______ _______ _______ _____ _____    ______ ____
ROOT
ATOM      1  C   UNL     1     114.490  77.316  84.964  0.00  0.00    +0.000 C 
ENDROOT
BRANCH   1   2
ATOM      2  C   UNL     1     113.281  76.544  84.552  0.00  0.00    +0.000 C 
ATOM      3  C   UNL     1     112.824  76.370  83.311  0.00  0.00    +0.000 C 
ATOM      4  C   UNL     1     111.604  75.537  83.343  0.00  0.00    +0.000 C 
ATOM      5  C   UNL     1     111.626  75.067  84.809  0.00  0.00    +0.000 C 
ATOM      6  O   UNL     1     112.537  75.914  85.546  0.00  0.00    +0.000 OA
BRANCH   4   7
ATOM      7  N   UNL     1     110.450  76.350  82.975  0.00  0.00    +0.000 NA
ATOM      8  H   UNL     1     110.672  77.330  83.151  0.00  0.00    +0.000 HD
ATOM      9  H   UNL     1     109.669  76.131  83.589  0.00  0.00    +0.000 HD
ENDBRANCH   4   7
ENDBRANCH   1   2
BRANCH   1  11
ATOM     10  N   UNL     1     115.611  77.516  87.134  0.00  0.00    +0.000 NA
ATOM     11  C   UNL     1     115.133  76.755  86.211  0.00  0.00    +0.000 C 
BRANCH  10  13
ATOM     12  C   UNL     1     116.695  78.423  89.350  0.00  0.00    +0.000 C 
ATOM     13  S   UNL     1     116.268  76.936  88.491  0.00  0.00    +0.000 S 
ATOM     14  O   UNL     1     117.515  76.265  88.162  0.00  0.00    +0.000 OA
ATOM     15  O   UNL     1     115.251  76.255  89.260  0.00  0.00    +0.000 OA
ENDBRANCH  10  13
BRANCH  11  16
ATOM     16  O   UNL     1     115.107  75.404  86.242  0.00  0.00    +0.000 OA
ATOM     17  H   UNL     1     115.058  75.015  85.345  0.00  0.00    +0.000 HD
ENDBRANCH  11  16
ENDBRANCH   1  11
TORSDOF 5
ENDMDL
MODEL 2
REMARK VINA RESULT:      -5.1      2.464      5.838
REMARK  Name = 
REMARK  6 active torsions:
REMARK  status: ('A' for Active; 'I' for Inactive)
REMARK    1  A    between atoms: C_1  and  S_2
REMARK    2  A    between atoms: S_2  and  N_5
REMARK    3  A    between atoms: C_6  and  O_7
REMARK    4  A    between atoms: C_6  and  C_8
REMARK    5  A    between atoms: C_8  and  C_9
REMARK    6  A    between atoms: C_11  and  N_12
REMARK                            x       y       z     vdW  Elec       q    Type
REMARK                         _______ _______ _______ _____ _____    ______ ____
ROOT
ATOM      1  C   UNL     1     115.420  75.965  85.697  0.00  0.00    +0.000 C 
ENDROOT
BRANCH   1   2
ATOM      2  C   UNL     1     115.795  76.876  86.819  0.00  0.00    +0.000 C 
ATOM      3  C   UNL     1     115.862  78.207  86.783  0.00  0.00    +0.000 C 
ATOM      4  C   UNL     1     116.267  78.720  88.109  0.00  0.00    +0.000 C 
ATOM      5  C   UNL     1     116.154  77.435  88.950  0.00  0.00    +0.000 C 
ATOM      6  O   UNL     1     116.098  76.304  88.051  0.00  0.00    +0.000 OA
BRANCH   4   7
ATOM      7  N   UNL     1     117.610  79.283  88.023  0.00  0.00    +0.000 NA
ATOM      8  H   UNL     1     118.030  79.267  88.953  0.00  0.00    +0.000 HD
ATOM      9  H   UNL     1     117.551  80.267  87.766  0.00  0.00    +0.000 HD
ENDBRANCH   4   7
ENDBRANCH   1   2
BRANCH   1  11
ATOM     10  N   UNL     1     113.318  75.788  84.450  0.00  0.00    +0.000 NA
ATOM     11  C   UNL     1     113.926  75.774  85.586  0.00  0.00    +0.000 C 
BRANCH  10  13
ATOM     12  C   UNL     1     111.520  75.533  82.550  0.00  0.00    +0.000 C 
ATOM     13  S   UNL     1     111.728  75.549  84.307  0.00  0.00    +0.000 S 
ATOM     14  O   UNL     1     111.028  76.722  84.804  0.00  0.00    +0.000 OA
ATOM     15  O   UNL     1     111.397  74.232  84.805  0.00  0.00    +0.000 OA
ENDBRANCH  10  13
BRANCH  11  16
ATOM     16  O   UNL     1     113.343  75.559  86.786  0.00  0.00    +0.000 OA
ATOM     17  H   UNL     1     113.135  76.395  87.251  0.00  0.00    +0.000 HD
ENDBRANCH  11  16
ENDBRANCH   1  11
TORSDOF 5
ENDMDL
MODEL 3
REMARK VINA RESULT:      -4.8      5.410      8.072
REMARK  Name = 
REMARK  6 active torsions:
REMARK  status: ('A' for Active; 'I' for Inactive)
REMARK    1  A    between atoms: C_1  and  S_2
REMARK    2  A    between atoms: S_2  and  N_5
REMARK    3  A    between atoms: C_6  and  O_7
REMARK    4  A    between atoms: C_6  and  C_8
REMARK    5  A    between atoms: C_8  and  C_9
REMARK    6  A    between atoms: C_11  and  N_12
REMARK                            x       y       z     vdW  Elec       q    Type
REMARK                         _______ _______ _______ _____ _____    ______ ____
ROOT
ATOM      1  C   UNL     1     112.386  72.948  82.415  0.00  0.00    +0.000 C 
ENDROOT
BRANCH   1   2
ATOM      2  C   UNL     1     112.274  74.191  83.233  0.00  0.00    +0.000 C 
ATOM      3  C   UNL     1     111.590  74.347  84.367  0.00  0.00    +0.000 C 
ATOM      4  C   UNL     1     111.748  75.733  84.856  0.00  0.00    +0.000 C 
ATOM      5  C   UNL     1     112.861  76.234  83.917  0.00  0.00    +0.000 C 
ATOM      6  O   UNL     1     112.960  75.322  82.800  0.00  0.00    +0.000 OA
BRANCH   4   7
ATOM      7  N   UNL     1     110.477  76.439  84.735  0.00  0.00    +0.000 NA
ATOM      8  H   UNL     1     109.726  75.751  84.680  0.00  0.00    +0.000 HD
ATOM      9  H   UNL     1     110.451  76.945  83.852  0.00  0.00    +0.000 HD
ENDBRANCH   4   7
ENDBRANCH   1   2
BRANCH   1  11
ATOM     10  N   UNL     1     111.400  72.023  80.371  0.00  0.00    +0.000 NA
ATOM     11  C   UNL     1     111.644  73.054  81.103  0.00  0.00    +0.000 C 
BRANCH  10  13
ATOM     12  C   UNL     1     111.800  72.750  77.877  0.00  0.00    +0.000 C 
ATOM     13  S   UNL     1     110.577  72.112  78.984  0.00  0.00    +0.000 S 
ATOM     14  O   UNL     1     109.549  73.132  79.111  0.00  0.00    +0.000 OA
ATOM     15  O   UNL     1     110.235  70.777  78.546  0.00  0.00    +0.000 OA
ENDBRANCH  10  13
BRANCH  11  16
ATOM     16  O   UNL     1     111.257  74.320  80.831  0.00  0.00    +0.000 OA
ATOM     17  H   UNL     1     111.964  74.837  80.394  0.00  0.00    +0.000 HD
ENDBRANCH  11  16
ENDBRANCH   1  11
TORSDOF 5
ENDMDL
MODEL 4
REMARK VINA RESULT:      -4.8      5.607      8.287
REMARK  Name = 
REMARK  6 active torsions:
REMARK  status: ('A' for Active; 'I' for Inactive)
REMARK    1  A    between atoms: C_1  and  S_2
REMARK    2  A    between atoms: S_2  and  N_5
REMARK    3  A    between atoms: C_6  and  O_7
REMARK    4  A    between atoms: C_6  and  C_8
REMARK    5  A    between atoms: C_8  and  C_9
REMARK    6  A    between atoms: C_11  and  N_12
REMARK                            x       y       z     vdW  Elec       q    Type
REMARK                         _______ _______ _______ _____ _____    ______ ____
ROOT
ATOM      1  C   UNL     1     112.966  74.618  80.786  0.00  0.00    +0.000 C 
ENDROOT
BRANCH   1   2
ATOM      2  C   UNL     1     112.530  75.387  81.989  0.00  0.00    +0.000 C 
ATOM      3  C   UNL     1     113.311  76.045  82.847  0.00  0.00    +0.000 C 
ATOM      4  C   UNL     1     112.479  76.675  83.893  0.00  0.00    +0.000 C 
ATOM      5  C   UNL     1     111.075  76.459  83.300  0.00  0.00    +0.000 C 
ATOM      6  O   UNL     1     111.167  75.456  82.263  0.00  0.00    +0.000 OA
BRANCH   4   7
ATOM      7  N   UNL     1     112.717  76.010  85.170  0.00  0.00    +0.000 NA
ATOM      8  H   UNL     1     113.384  76.565  85.708  0.00  0.00    +0.000 HD
ATOM      9  H   UNL     1     113.174  75.115  85.008  0.00  0.00    +0.000 HD
ENDBRANCH   4   7
ENDBRANCH   1   2
BRANCH   1  11
ATOM     10  N   UNL     1     111.515  73.625  79.079  0.00  0.00    +0.000 NA
ATOM     11  C   UNL     1     111.907  73.653  80.306  0.00  0.00    +0.000 C 
BRANCH  10  13
ATOM     12  C   UNL     1     110.550  72.776  76.786  0.00  0.00    +0.000 C 
ATOM     13  S   UNL     1     110.412  72.576  78.539  0.00  0.00    +0.000 S 
ATOM     14  O   UNL     1     109.089  73.049  78.914  0.00  0.00    +0.000 OA
ATOM     15  O   UNL     1     110.830  71.232  78.867  0.00  0.00    +0.000 OA
ENDBRANCH  10  13
BRANCH  11  16
ATOM     16  O   UNL     1     111.470  72.836  81.290  0.00  0.00    +0.000 OA
ATOM     17  H   UNL     1     110.939  73.313  81.959  0.00  0.00    +0.000 HD
ENDBRANCH  11  16
ENDBRANCH   1  11
TORSDOF 5
ENDMDL
MODEL 5
REMARK VINA RESULT:      -4.7     17.143     18.244
REMARK  Name = 
REMARK  6 active torsions:
REMARK  status: ('A' for Active; 'I' for Inactive)
REMARK    1  A    between atoms: C_1  and  S_2
REMARK    2  A    between atoms: S_2  and  N_5
REMARK    3  A    between atoms: C_6  and  O_7
REMARK    4  A    between atoms: C_6  and  C_8
REMARK    5  A    between atoms: C_8  and  C_9
REMARK    6  A    between atoms: C_11  and  N_12
REMARK                            x       y       z     vdW  Elec       q    Type
REMARK                         _______ _______ _______ _____ _____    ______ ____
ROOT
ATOM      1  C   UNL     1     103.546  76.667 100.192  0.00  0.00    +0.000 C 
ENDROOT
BRANCH   1   2
ATOM      2  C   UNL     1     104.600  76.222  99.233  0.00  0.00    +0.000 C 
ATOM      3  C   UNL     1     105.646  75.438  99.498  0.00  0.00    +0.000 C 
ATOM      4  C   UNL     1     106.440  75.238  98.268  0.00  0.00    +0.000 C 
ATOM      5  C   UNL     1     105.490  75.846  97.220  0.00  0.00    +0.000 C 
ATOM      6  O   UNL     1     104.500  76.643  97.910  0.00  0.00    +0.000 OA
BRANCH   4   7
ATOM      7  N   UNL     1     107.724  75.919  98.402  0.00  0.00    +0.000 NA
ATOM      8  H   UNL     1     107.551  76.908  98.586  0.00  0.00    +0.000 HD
ATOM      9  H   UNL     1     108.220  75.888  97.514  0.00  0.00    +0.000 HD
ENDBRANCH   4   7
ENDBRANCH   1   2
BRANCH   1  11
ATOM     10  N   UNL     1     101.178  76.244 100.659  0.00  0.00    +0.000 NA
ATOM     11  C   UNL     1     102.224  75.978  99.954  0.00  0.00    +0.000 C 
BRANCH  10  13
ATOM     12  C   UNL     1      98.739  76.304 101.635  0.00  0.00    +0.000 C 
ATOM     13  S   UNL     1      99.746  75.544 100.395  0.00  0.00    +0.000 S 
ATOM     14  O   UNL     1      99.841  74.134 100.734  0.00  0.00    +0.000 OA
ATOM     15  O   UNL     1      99.245  75.955  99.102  0.00  0.00    +0.000 OA
ENDBRANCH  10  13
BRANCH  11  16
ATOM     16  O   UNL     1     102.275  75.106  98.923  0.00  0.00    +0.000 OA
ATOM     17  H   UNL     1     102.844  74.334  99.119  0.00  0.00    +0.000 HD
ENDBRANCH  11  16
ENDBRANCH   1  11
TORSDOF 5
ENDMDL
MODEL 6
REMARK VINA RESULT:      -4.7      5.276      7.135
REMARK  Name = 
REMARK  6 active torsions:
REMARK  status: ('A' for Active; 'I' for Inactive)
REMARK    1  A    between atoms: C_1  and  S_2
REMARK    2  A    between atoms: S_2  and  N_5
REMARK    3  A    between atoms: C_6  and  O_7
REMARK    4  A    between atoms: C_6  and  C_8
REMARK    5  A    between atoms: C_8  and  C_9
REMARK    6  A    between atoms: C_11  and  N_12
REMARK                            x       y       z     vdW  Elec       q    Type
REMARK                         _______ _______ _______ _____ _____    ______ ____
ROOT
ATOM      1  C   UNL     1     112.521  75.554  80.644  0.00  0.00    +0.000 C 
ENDROOT
BRANCH   1   2
ATOM      2  C   UNL     1     112.191  75.968  82.040  0.00  0.00    +0.000 C 
ATOM      3  C   UNL     1     113.005  76.556  82.917  0.00  0.00    +0.000 C 
ATOM      4  C   UNL     1     112.281  76.801  84.182  0.00  0.00    +0.000 C 
ATOM      5  C   UNL     1     110.840  76.476  83.745  0.00  0.00    +0.000 C 
ATOM      6  O   UNL     1     110.896  75.743  82.499  0.00  0.00    +0.000 OA
BRANCH   4   7
ATOM      7  N   UNL     1     112.817  75.934  85.226  0.00  0.00    +0.000 NA
ATOM      8  H   UNL     1     112.451  74.991  85.087  0.00  0.00    +0.000 HD
ATOM      9  H   UNL     1     112.465  76.234  86.132  0.00  0.00    +0.000 HD
ENDBRANCH   4   7
ENDBRANCH   1   2
BRANCH   1  11
ATOM     10  N   UNL     1     113.254  73.223  80.466  0.00  0.00    +0.000 NA
ATOM     11  C   UNL     1     112.293  74.079  80.413  0.00  0.00    +0.000 C 
BRANCH  10  13
ATOM     12  C   UNL     1     114.660  71.002  80.484  0.00  0.00    +0.000 C 
ATOM     13  S   UNL     1     113.024  71.638  80.258  0.00  0.00    +0.000 S 
ATOM     14  O   UNL     1     112.663  71.391  78.872  0.00  0.00    +0.000 OA
ATOM     15  O   UNL     1     112.199  71.131  81.332  0.00  0.00    +0.000 OA
ENDBRANCH  10  13
BRANCH  11  16
ATOM     16  O   UNL     1     110.993  73.788  80.187  0.00  0.00    +0.000 OA
ATOM     17  H   UNL     1     110.883  73.059  79.544  0.00  0.00    +0.000 HD
ENDBRANCH  11  16
ENDBRANCH   1  11
TORSDOF 5
ENDMDL
MODEL 7
REMARK VINA RESULT:      -4.6     17.224     18.006
REMARK  Name = 
REMARK  6 active torsions:
REMARK  status: ('A' for Active; 'I' for Inactive)
REMARK    1  A    between atoms: C_1  and  S_2
REMARK    2  A    between atoms: S_2  and  N_5
REMARK    3  A    between atoms: C_6  and  O_7
REMARK    4  A    between atoms: C_6  and  C_8
REMARK    5  A    between atoms: C_8  and  C_9
REMARK    6  A    between atoms: C_11  and  N_12
REMARK                            x       y       z     vdW  Elec       q    Type
REMARK                         _______ _______ _______ _____ _____    ______ ____
ROOT
ATOM      1  C   UNL     1     101.786  65.372  76.857  0.00  0.00    +0.000 C 
ENDROOT
BRANCH   1   2
ATOM      2  C   UNL     1     100.877  66.081  77.805  0.00  0.00    +0.000 C 
ATOM      3  C   UNL     1     100.352  67.298  77.656  0.00  0.00    +0.000 C 
ATOM      4  C   UNL     1      99.504  67.620  78.823  0.00  0.00    +0.000 C 
ATOM      5  C   UNL     1      99.452  66.246  79.516  0.00  0.00    +0.000 C 
ATOM      6  O   UNL     1     100.507  65.420  78.974  0.00  0.00    +0.000 OA
BRANCH   4   7
ATOM      7  N   UNL     1     100.133  68.680  79.604  0.00  0.00    +0.000 NA
ATOM      8  H   UNL     1     101.035  68.344  79.942  0.00  0.00    +0.000 HD
ATOM      9  H   UNL     1      99.578  68.863  80.437  0.00  0.00    +0.000 HD
ENDBRANCH   4   7
ENDBRANCH   1   2
BRANCH   1  11
ATOM     10  N   UNL     1     104.185  64.936  76.615  0.00  0.00    +0.000 NA
ATOM     11  C   UNL     1     103.204  65.293  77.371  0.00  0.00    +0.000 C 
BRANCH  10  13
ATOM     12  C   UNL     1     106.554  64.227  75.723  0.00  0.00    +0.000 C 
ATOM     13  S   UNL     1     105.713  64.881  77.136  0.00  0.00    +0.000 S 
ATOM     14  O   UNL     1     105.817  63.883  78.188  0.00  0.00    +0.000 OA
ATOM     15  O   UNL     1     106.192  66.228  77.353  0.00  0.00    +0.000 OA
ENDBRANCH  10  13
BRANCH  11  16
ATOM     16  O   UNL     1     103.305  65.664  78.666  0.00  0.00    +0.000 OA
ATOM     17  H   UNL     1     103.376  66.635  78.768  0.00  0.00    +0.000 HD
ENDBRANCH  11  16
ENDBRANCH   1  11
TORSDOF 5
ENDMDL
MODEL 8
REMARK VINA RESULT:      -4.6     31.624     32.573
REMARK  Name = 
REMARK  6 active torsions:
REMARK  status: ('A' for Active; 'I' for Inactive)
REMARK    1  A    between atoms: C_1  and  S_2
REMARK    2  A    between atoms: S_2  and  N_5
REMARK    3  A    between atoms: C_6  and  O_7
REMARK    4  A    between atoms: C_6  and  C_8
REMARK    5  A    between atoms: C_8  and  C_9
REMARK    6  A    between atoms: C_11  and  N_12
REMARK                            x       y       z     vdW  Elec       q    Type
REMARK                         _______ _______ _______ _____ _____    ______ ____
ROOT
ATOM      1  C   UNL     1     102.639 104.853  80.111  0.00  0.00    +0.000 C 
ENDROOT
BRANCH   1   2
ATOM      2  C   UNL     1     102.825 106.324  79.934  0.00  0.00    +0.000 C 
ATOM      3  C   UNL     1     102.515 107.283  80.807  0.00  0.00    +0.000 C 
ATOM      4  C   UNL     1     102.865 108.602  80.241  0.00  0.00    +0.000 C 
ATOM      5  C   UNL     1     103.667 108.169  79.000  0.00  0.00    +0.000 C 
ATOM      6  O   UNL     1     103.394 106.772  78.745  0.00  0.00    +0.000 OA
BRANCH   4   7
ATOM      7  N   UNL     1     101.644 109.348  79.955  0.00  0.00    +0.000 NA
ATOM      8  H   UNL     1     101.877 110.132  79.344  0.00  0.00    +0.000 HD
ATOM      9  H   UNL     1     101.291 109.765  80.814  0.00  0.00    +0.000 HD
ENDBRANCH   4   7
ENDBRANCH   1   2
BRANCH   1  11
ATOM     10  N   UNL     1     100.978 103.166  79.478  0.00  0.00    +0.000 NA
ATOM     11  C   UNL     1     101.532 104.305  79.241  0.00  0.00    +0.000 C 
BRANCH  10  13
ATOM     12  C   UNL     1      99.741 100.881  79.080  0.00  0.00    +0.000 C 
ATOM     13  S   UNL     1      99.769 102.580  78.583  0.00  0.00    +0.000 S 
ATOM     14  O   UNL     1     100.164 102.603  77.184  0.00  0.00    +0.000 OA
ATOM     15  O   UNL     1      98.526 103.186  79.004  0.00  0.00    +0.000 OA
ENDBRANCH  10  13
BRANCH  11  16
ATOM     16  O   UNL     1     101.192 105.151  78.244  0.00  0.00    +0.000 OA
ATOM     17  H   UNL     1     100.553 105.831  78.538  0.00  0.00    +0.000 HD
ENDBRANCH  11  16
ENDBRANCH   1  11
TORSDOF 5
ENDMDL
MODEL 9
REMARK VINA RESULT:      -4.5     15.218     16.192
REMARK  Name = 
REMARK  6 active torsions:
REMARK  status: ('A' for Active; 'I' for Inactive)
REMARK    1  A    between atoms: C_1  and  S_2
REMARK    2  A    between atoms: S_2  and  N_5
REMARK    3  A    between atoms: C_6  and  O_7
REMARK    4  A    between atoms: C_6  and  C_8
REMARK    5  A    between atoms: C_8  and  C_9
REMARK    6  A    between atoms: C_11  and  N_12
REMARK                            x       y       z     vdW  Elec       q    Type
REMARK                         _______ _______ _______ _____ _____    ______ ____
ROOT
ATOM      1  C   UNL     1     105.624  74.893 100.730  0.00  0.00    +0.000 C 
ENDROOT
BRANCH   1   2
ATOM      2  C   UNL     1     104.192  75.149 100.395  0.00  0.00    +0.000 C 
ATOM      3  C   UNL     1     103.205  74.252 100.351  0.00  0.00    +0.000 C 
ATOM      4  C   UNL     1     101.941  74.923  99.982  0.00  0.00    +0.000 C 
ATOM      5  C   UNL     1     102.367  76.399 100.089  0.00  0.00    +0.000 C 
ATOM      6  O   UNL     1     103.812  76.457 100.106  0.00  0.00    +0.000 OA
BRANCH   4   7
ATOM      7  N   UNL     1     101.534  74.495  98.648  0.00  0.00    +0.000 NA
ATOM      8  H   UNL     1     102.119  73.708  98.366  0.00  0.00    +0.000 HD
ATOM      9  H   UNL     1     101.730  75.237  97.979  0.00  0.00    +0.000 HD
ENDBRANCH   4   7
ENDBRANCH   1   2
BRANCH   1  11
ATOM     10  N   UNL     1     107.798  74.846  99.601  0.00  0.00    +0.000 NA
ATOM     11  C   UNL     1     106.540  75.120  99.551  0.00  0.00    +0.000 C 
BRANCH  10  13
ATOM     12  C   UNL     1     110.342  74.542  99.015  0.00  0.00    +0.000 C 
ATOM     13  S   UNL     1     108.786  75.047  98.340  0.00  0.00    +0.000 S 
ATOM     14  O   UNL     1     108.894  76.467  98.047  0.00  0.00    +0.000 OA
ATOM     15  O   UNL     1     108.429  74.109  97.299  0.00  0.00    +0.000 OA
ENDBRANCH  10  13
BRANCH  11  16
ATOM     16  O   UNL     1     105.882  75.598  98.472  0.00  0.00    +0.000 OA
ATOM     17  H   UNL     1     106.083  75.088  97.661  0.00  0.00    +0.000 HD
ENDBRANCH  11  16
ENDBRANCH   1  11
TORSDOF 5
ENDMDL
