MODEL 1
REMARK VINA RESULT:      -6.5      0.000      0.000
REMARK  Name = 
REMARK  20 active torsions:
REMARK  status: ('A' for Active; 'I' for Inactive)
REMARK    1  A    between atoms: C_1  and  C_2
REMARK    2  A    between atoms: C_2  and  C_3
REMARK    3  A    between atoms: C_7  and  O_8
REMARK    4  A    between atoms: C_7  and  C_20
REMARK    5  A    between atoms: O_8  and  C_9
REMARK    6  A    between atoms: C_9  and  C_11
REMARK    7  A    between atoms: C_11  and  O_12
REMARK    8  A    between atoms: O_12  and  C_13
REMARK    9  A    between atoms: C_18  and  O_19
REMARK   10  A    between atoms: C_20  and  O_22
REMARK   11  A    between atoms: O_22  and  C_23
REMARK   12  A    between atoms: C_28  and  N_29
REMARK   13  A    between atoms: C_30  and  C_32
REMARK   14  A    between atoms: C_32  and  N_33
REMARK   15  A    between atoms: C_32  and  C_34
REMARK   16  A    between atoms: C_34  and  C_35
REMARK   17  A    between atoms: C_35  and  O_36
REMARK   18  A    between atoms: O_36  and  C_37
REMARK   19  A    between atoms: C_37  and  C_38
REMARK   20  A    between atoms: C_38  and  O_39
REMARK                            x       y       z     vdW  Elec       q    Type
REMARK                         _______ _______ _______ _____ _____    ______ ____
ROOT
ATOM      1  C   UNL     1     113.366  75.486  79.946  0.00  0.00    +0.000 C 
ATOM      2  O   UNL     1     113.027  76.596  79.556  0.00  0.00    +0.000 OA
ENDROOT
BRANCH   1   7
ATOM      3  C   UNL     1     112.394  75.003  82.183  0.00  0.00    +0.000 C 
ATOM      4  C   UNL     1     112.840  74.301  83.466  0.00  0.00    +0.000 C 
ATOM      5  C   UNL     1     114.007  73.410  83.049  0.00  0.00    +0.000 C 
ATOM      6  C   UNL     1     114.535  73.954  81.716  0.00  0.00    +0.000 C 
ATOM      7  C   UNL     1     113.732  75.225  81.428  0.00  0.00    +0.000 C 
BRANCH   3   9
ATOM      8  C   UNL     1     110.628  76.323  83.521  0.00  0.00    +0.000 C 
ATOM      9  C   UNL     1     111.650  76.336  82.412  0.00  0.00    +0.000 C 
ENDBRANCH   3   9
BRANCH   7  10
ATOM     10  O   UNL     1     114.357  76.369  82.063  0.00  0.00    +0.000 OA
BRANCH  10  11
ATOM     11  C   UNL     1     115.708  76.498  81.946  0.00  0.00    +0.000 C 
ATOM     12  O   UNL     1     116.292  76.683  80.889  0.00  0.00    +0.000 OA
BRANCH  11  13
ATOM     13  C   UNL     1     116.340  76.487  83.345  0.00  0.00    +0.000 C 
BRANCH  13  14
ATOM     14  O   UNL     1     116.409  77.706  84.077  0.00  0.00    +0.000 OA
BRANCH  14  15
ATOM     15  C   UNL     1     116.911  77.593  85.425  0.00  0.00    +0.000 C 
ATOM     16  C   UNL     1     117.322  78.961  85.995  0.00  0.00    +0.000 C 
ATOM     17  C   UNL     1     117.630  78.903  87.488  0.00  0.00    +0.000 C 
ATOM     18  C   UNL     1     116.486  78.298  88.289  0.00  0.00    +0.000 C 
ATOM     19  C   UNL     1     116.137  76.907  87.760  0.00  0.00    +0.000 C 
ATOM     20  C   UNL     1     115.779  76.964  86.275  0.00  0.00    +0.000 C 
BRANCH  20  21
ATOM     21  O   UNL     1     114.579  77.741  86.148  0.00  0.00    +0.000 OA
ATOM     22  H   UNL     1     113.952  77.181  85.650  0.00  0.00    +0.000 HD
ENDBRANCH  20  21
ENDBRANCH  14  15
ENDBRANCH  13  14
ENDBRANCH  11  13
ENDBRANCH  10  11
ENDBRANCH   7  10
ENDBRANCH   1   7
BRANCH   1  23
ATOM     23  O   UNL     1     113.366  74.352  79.207  0.00  0.00    +0.000 OA
BRANCH  23  24
ATOM     24  C   UNL     1     112.158  73.682  78.747  0.00  0.00    +0.000 C 
ATOM     25  C   UNL     1     111.999  72.455  79.655  0.00  0.00    +0.000 C 
ATOM     26  C   UNL     1     110.796  71.612  79.268  0.00  0.00    +0.000 C 
ATOM     27  O   UNL     1     110.848  71.250  77.890  0.00  0.00    +0.000 OA
ATOM     28  C   UNL     1     110.820  72.397  77.034  0.00  0.00    +0.000 C 
ATOM     29  C   UNL     1     112.070  73.253  77.263  0.00  0.00    +0.000 C 
BRANCH  29  30
ATOM     30  N   UNL     1     112.206  74.368  76.323  0.00  0.00    +0.000 N 
ATOM     31  C   UNL     1     112.770  74.284  75.066  0.00  0.00    +0.000 C 
ATOM     32  O   UNL     1     113.370  73.290  74.672  0.00  0.00    +0.000 OA
ATOM     33  H   UNL     1     111.493  75.084  76.451  0.00  0.00    +0.000 HD
BRANCH  31  34
ATOM     34  C   UNL     1     112.574  75.583  74.239  0.00  0.00    +0.000 C 
BRANCH  34  35
ATOM     35  N   UNL     1     111.126  75.755  73.963  0.00  0.00    +0.000 NA
ATOM     36  H   UNL     1     110.613  75.000  74.421  0.00  0.00    +0.000 HD
ATOM     37  H   UNL     1     110.957  75.624  72.967  0.00  0.00    +0.000 HD
ENDBRANCH  34  35
BRANCH  34  38
ATOM     38  C   UNL     1     113.082  76.842  74.942  0.00  0.00    +0.000 C 
BRANCH  38  39
ATOM     39  C   UNL     1     113.557  77.938  73.990  0.00  0.00    +0.000 C 
BRANCH  39  40
ATOM     40  O   UNL     1     112.458  78.612  73.364  0.00  0.00    +0.000 OA
BRANCH  40  41
ATOM     41  C   UNL     1     112.523  78.416  71.939  0.00  0.00    +0.000 C 
BRANCH  41  42
ATOM     42  C   UNL     1     113.708  79.169  71.349  0.00  0.00    +0.000 C 
BRANCH  42  43
ATOM     43  O   UNL     1     113.507  80.576  71.462  0.00  0.00    +0.000 OA
ATOM     44  H   UNL     1     114.401  80.966  71.536  0.00  0.00    +0.000 HD
ENDBRANCH  42  43
ENDBRANCH  41  42
ENDBRANCH  40  41
ENDBRANCH  39  40
ENDBRANCH  38  39
ENDBRANCH  34  38
ENDBRANCH  31  34
ENDBRANCH  29  30
ENDBRANCH  23  24
ENDBRANCH   1  23
TORSDOF 19
ENDMDL
MODEL 2
REMARK VINA RESULT:      -6.4      2.058      2.415
REMARK  Name = 
REMARK  20 active torsions:
REMARK  status: ('A' for Active; 'I' for Inactive)
REMARK    1  A    between atoms: C_1  and  C_2
REMARK    2  A    between atoms: C_2  and  C_3
REMARK    3  A    between atoms: C_7  and  O_8
REMARK    4  A    between atoms: C_7  and  C_20
REMARK    5  A    between atoms: O_8  and  C_9
REMARK    6  A    between atoms: C_9  and  C_11
REMARK    7  A    between atoms: C_11  and  O_12
REMARK    8  A    between atoms: O_12  and  C_13
REMARK    9  A    between atoms: C_18  and  O_19
REMARK   10  A    between atoms: C_20  and  O_22
REMARK   11  A    between atoms: O_22  and  C_23
REMARK   12  A    between atoms: C_28  and  N_29
REMARK   13  A    between atoms: C_30  and  C_32
REMARK   14  A    between atoms: C_32  and  N_33
REMARK   15  A    between atoms: C_32  and  C_34
REMARK   16  A    between atoms: C_34  and  C_35
REMARK   17  A    between atoms: C_35  and  O_36
REMARK   18  A    between atoms: O_36  and  C_37
REMARK   19  A    between atoms: C_37  and  C_38
REMARK   20  A    between atoms: C_38  and  O_39
REMARK                            x       y       z     vdW  Elec       q    Type
REMARK                         _______ _______ _______ _____ _____    ______ ____
ROOT
ATOM      1  C   UNL     1     112.899  76.124  80.819  0.00  0.00    +0.000 C 
ATOM      2  O   UNL     1     113.137  77.197  80.280  0.00  0.00    +0.000 OA
ENDROOT
BRANCH   1   7
ATOM      3  C   UNL     1     111.976  75.123  82.900  0.00  0.00    +0.000 C 
ATOM      4  C   UNL     1     112.531  74.525  84.193  0.00  0.00    +0.000 C 
ATOM      5  C   UNL     1     113.980  74.164  83.875  0.00  0.00    +0.000 C 
ATOM      6  C   UNL     1     114.388  74.978  82.641  0.00  0.00    +0.000 C 
ATOM      7  C   UNL     1     113.198  75.886  82.320  0.00  0.00    +0.000 C 
BRANCH   3   9
ATOM      8  C   UNL     1     110.279  76.191  84.522  0.00  0.00    +0.000 C 
ATOM      9  C   UNL     1     110.770  76.065  83.102  0.00  0.00    +0.000 C 
ENDBRANCH   3   9
BRANCH   7  10
ATOM     10  O   UNL     1     113.287  77.119  83.077  0.00  0.00    +0.000 OA
BRANCH  10  11
ATOM     11  C   UNL     1     114.528  77.553  83.435  0.00  0.00    +0.000 C 
ATOM     12  O   UNL     1     115.446  77.737  82.649  0.00  0.00    +0.000 OA
BRANCH  11  13
ATOM     13  C   UNL     1     114.539  77.873  84.936  0.00  0.00    +0.000 C 
BRANCH  13  14
ATOM     14  O   UNL     1     115.091  76.919  85.838  0.00  0.00    +0.000 OA
BRANCH  14  15
ATOM     15  C   UNL     1     116.438  77.189  86.278  0.00  0.00    +0.000 C 
ATOM     16  C   UNL     1     116.636  78.672  86.630  0.00  0.00    +0.000 C 
ATOM     17  C   UNL     1     117.971  78.937  87.318  0.00  0.00    +0.000 C 
ATOM     18  C   UNL     1     118.174  78.053  88.541  0.00  0.00    +0.000 C 
ATOM     19  C   UNL     1     118.050  76.577  88.163  0.00  0.00    +0.000 C 
ATOM     20  C   UNL     1     116.694  76.294  87.517  0.00  0.00    +0.000 C 
BRANCH  20  21
ATOM     21  O   UNL     1     115.684  76.527  88.509  0.00  0.00    +0.000 OA
ATOM     22  H   UNL     1     114.918  75.985  88.241  0.00  0.00    +0.000 HD
ENDBRANCH  20  21
ENDBRANCH  14  15
ENDBRANCH  13  14
ENDBRANCH  11  13
ENDBRANCH  10  11
ENDBRANCH   7  10
ENDBRANCH   1   7
BRANCH   1  23
ATOM     23  O   UNL     1     112.270  75.072  80.245  0.00  0.00    +0.000 OA
BRANCH  23  24
ATOM     24  C   UNL     1     112.913  74.138  79.331  0.00  0.00    +0.000 C 
ATOM     25  C   UNL     1     113.314  72.932  80.192  0.00  0.00    +0.000 C 
ATOM     26  C   UNL     1     114.049  71.876  79.384  0.00  0.00    +0.000 C 
ATOM     27  O   UNL     1     115.169  72.440  78.706  0.00  0.00    +0.000 OA
ATOM     28  C   UNL     1     114.775  73.450  77.771  0.00  0.00    +0.000 C 
ATOM     29  C   UNL     1     114.130  74.627  78.511  0.00  0.00    +0.000 C 
BRANCH  29  30
ATOM     30  N   UNL     1     113.835  75.777  77.653  0.00  0.00    +0.000 N 
ATOM     31  C   UNL     1     114.716  76.798  77.360  0.00  0.00    +0.000 C 
ATOM     32  O   UNL     1     115.794  76.929  77.929  0.00  0.00    +0.000 OA
ATOM     33  H   UNL     1     113.127  75.574  76.949  0.00  0.00    +0.000 HD
BRANCH  31  34
ATOM     34  C   UNL     1     114.176  77.750  76.260  0.00  0.00    +0.000 C 
BRANCH  34  35
ATOM     35  N   UNL     1     115.097  78.907  76.139  0.00  0.00    +0.000 NA
ATOM     36  H   UNL     1     115.728  78.908  76.943  0.00  0.00    +0.000 HD
ATOM     37  H   UNL     1     114.563  79.770  76.219  0.00  0.00    +0.000 HD
ENDBRANCH  34  35
BRANCH  34  38
ATOM     38  C   UNL     1     114.048  77.092  74.886  0.00  0.00    +0.000 C 
BRANCH  38  39
ATOM     39  C   UNL     1     112.868  77.600  74.058  0.00  0.00    +0.000 C 
BRANCH  39  40
ATOM     40  O   UNL     1     113.011  78.987  73.725  0.00  0.00    +0.000 OA
BRANCH  40  41
ATOM     41  C   UNL     1     112.617  79.196  72.356  0.00  0.00    +0.000 C 
BRANCH  41  42
ATOM     42  C   UNL     1     112.462  77.863  71.635  0.00  0.00    +0.000 C 
BRANCH  42  43
ATOM     43  O   UNL     1     112.708  78.023  70.240  0.00  0.00    +0.000 OA
ATOM     44  H   UNL     1     113.604  78.411  70.171  0.00  0.00    +0.000 HD
ENDBRANCH  42  43
ENDBRANCH  41  42
ENDBRANCH  40  41
ENDBRANCH  39  40
ENDBRANCH  38  39
ENDBRANCH  34  38
ENDBRANCH  31  34
ENDBRANCH  29  30
ENDBRANCH  23  24
ENDBRANCH   1  23
TORSDOF 19
ENDMDL
MODEL 3
REMARK VINA RESULT:      -6.3      2.025      3.214
REMARK  Name = 
REMARK  20 active torsions:
REMARK  status: ('A' for Active; 'I' for Inactive)
REMARK    1  A    between atoms: C_1  and  C_2
REMARK    2  A    between atoms: C_2  and  C_3
REMARK    3  A    between atoms: C_7  and  O_8
REMARK    4  A    between atoms: C_7  and  C_20
REMARK    5  A    between atoms: O_8  and  C_9
REMARK    6  A    between atoms: C_9  and  C_11
REMARK    7  A    between atoms: C_11  and  O_12
REMARK    8  A    between atoms: O_12  and  C_13
REMARK    9  A    between atoms: C_18  and  O_19
REMARK   10  A    between atoms: C_20  and  O_22
REMARK   11  A    between atoms: O_22  and  C_23
REMARK   12  A    between atoms: C_28  and  N_29
REMARK   13  A    between atoms: C_30  and  C_32
REMARK   14  A    between atoms: C_32  and  N_33
REMARK   15  A    between atoms: C_32  and  C_34
REMARK   16  A    between atoms: C_34  and  C_35
REMARK   17  A    between atoms: C_35  and  O_36
REMARK   18  A    between atoms: O_36  and  C_37
REMARK   19  A    between atoms: C_37  and  C_38
REMARK   20  A    between atoms: C_38  and  O_39
REMARK                            x       y       z     vdW  Elec       q    Type
REMARK                         _______ _______ _______ _____ _____    ______ ____
ROOT
ATOM      1  C   UNL     1     113.295  74.646  78.991  0.00  0.00    +0.000 C 
ATOM      2  O   UNL     1     113.313  75.810  78.615  0.00  0.00    +0.000 OA
ENDROOT
BRANCH   1   7
ATOM      3  C   UNL     1     112.072  72.900  80.272  0.00  0.00    +0.000 C 
ATOM      4  C   UNL     1     112.057  72.374  81.707  0.00  0.00    +0.000 C 
ATOM      5  C   UNL     1     113.383  72.827  82.313  0.00  0.00    +0.000 C 
ATOM      6  C   UNL     1     113.901  73.983  81.449  0.00  0.00    +0.000 C 
ATOM      7  C   UNL     1     112.811  74.259  80.410  0.00  0.00    +0.000 C 
BRANCH   3   9
ATOM      8  C   UNL     1     110.136  71.884  78.903  0.00  0.00    +0.000 C 
ATOM      9  C   UNL     1     110.673  73.082  79.646  0.00  0.00    +0.000 C 
ENDBRANCH   3   9
BRANCH   7  10
ATOM     10  O   UNL     1     111.832  75.186  80.942  0.00  0.00    +0.000 OA
BRANCH  10  11
ATOM     11  C   UNL     1     112.287  76.217  81.707  0.00  0.00    +0.000 C 
ATOM     12  O   UNL     1     113.161  76.998  81.359  0.00  0.00    +0.000 OA
BRANCH  11  13
ATOM     13  C   UNL     1     111.457  76.297  82.995  0.00  0.00    +0.000 C 
BRANCH  13  14
ATOM     14  O   UNL     1     112.122  76.179  84.249  0.00  0.00    +0.000 OA
BRANCH  14  15
ATOM     15  C   UNL     1     113.542  76.429  84.225  0.00  0.00    +0.000 C 
ATOM     16  C   UNL     1     113.869  77.889  84.580  0.00  0.00    +0.000 C 
ATOM     17  C   UNL     1     115.362  78.119  84.793  0.00  0.00    +0.000 C 
ATOM     18  C   UNL     1     115.952  77.161  85.819  0.00  0.00    +0.000 C 
ATOM     19  C   UNL     1     115.685  75.711  85.415  0.00  0.00    +0.000 C 
ATOM     20  C   UNL     1     114.186  75.460  85.248  0.00  0.00    +0.000 C 
BRANCH  20  21
ATOM     21  O   UNL     1     113.573  75.624  86.535  0.00  0.00    +0.000 OA
ATOM     22  H   UNL     1     112.616  75.707  86.364  0.00  0.00    +0.000 HD
ENDBRANCH  20  21
ENDBRANCH  14  15
ENDBRANCH  13  14
ENDBRANCH  11  13
ENDBRANCH  10  11
ENDBRANCH   7  10
ENDBRANCH   1   7
BRANCH   1  23
ATOM     23  O   UNL     1     113.575  73.563  78.228  0.00  0.00    +0.000 OA
BRANCH  23  24
ATOM     24  C   UNL     1     113.059  73.362  76.881  0.00  0.00    +0.000 C 
ATOM     25  C   UNL     1     112.997  71.840  76.690  0.00  0.00    +0.000 C 
ATOM     26  C   UNL     1     112.518  71.460  75.299  0.00  0.00    +0.000 C 
ATOM     27  O   UNL     1     113.313  72.090  74.296  0.00  0.00    +0.000 OA
ATOM     28  C   UNL     1     113.231  73.518  74.368  0.00  0.00    +0.000 C 
ATOM     29  C   UNL     1     113.813  74.010  75.697  0.00  0.00    +0.000 C 
BRANCH  29  30
ATOM     30  N   UNL     1     113.915  75.468  75.795  0.00  0.00    +0.000 N 
ATOM     31  C   UNL     1     115.045  76.207  75.514  0.00  0.00    +0.000 C 
ATOM     32  O   UNL     1     116.140  75.695  75.309  0.00  0.00    +0.000 OA
ATOM     33  H   UNL     1     113.021  75.938  75.656  0.00  0.00    +0.000 HD
BRANCH  31  34
ATOM     34  C   UNL     1     114.770  77.735  75.510  0.00  0.00    +0.000 C 
BRANCH  34  35
ATOM     35  N   UNL     1     114.559  78.183  76.909  0.00  0.00    +0.000 NA
ATOM     36  H   UNL     1     115.096  77.577  77.532  0.00  0.00    +0.000 HD
ATOM     37  H   UNL     1     113.585  78.032  77.165  0.00  0.00    +0.000 HD
ENDBRANCH  34  35
BRANCH  34  38
ATOM     38  C   UNL     1     115.905  78.563  74.906  0.00  0.00    +0.000 C 
BRANCH  38  39
ATOM     39  C   UNL     1     115.596  79.126  73.521  0.00  0.00    +0.000 C 
BRANCH  39  40
ATOM     40  O   UNL     1     114.473  80.017  73.546  0.00  0.00    +0.000 OA
BRANCH  40  41
ATOM     41  C   UNL     1     113.875  80.074  72.238  0.00  0.00    +0.000 C 
BRANCH  41  42
ATOM     42  C   UNL     1     112.591  79.255  72.200  0.00  0.00    +0.000 C 
BRANCH  42  43
ATOM     43  O   UNL     1     112.537  78.473  71.010  0.00  0.00    +0.000 OA
ATOM     44  H   UNL     1     113.312  77.878  71.047  0.00  0.00    +0.000 HD
ENDBRANCH  42  43
ENDBRANCH  41  42
ENDBRANCH  40  41
ENDBRANCH  39  40
ENDBRANCH  38  39
ENDBRANCH  34  38
ENDBRANCH  31  34
ENDBRANCH  29  30
ENDBRANCH  23  24
ENDBRANCH   1  23
TORSDOF 19
ENDMDL
MODEL 4
REMARK VINA RESULT:      -6.3      3.971      8.716
REMARK  Name = 
REMARK  20 active torsions:
REMARK  status: ('A' for Active; 'I' for Inactive)
REMARK    1  A    between atoms: C_1  and  C_2
REMARK    2  A    between atoms: C_2  and  C_3
REMARK    3  A    between atoms: C_7  and  O_8
REMARK    4  A    between atoms: C_7  and  C_20
REMARK    5  A    between atoms: O_8  and  C_9
REMARK    6  A    between atoms: C_9  and  C_11
REMARK    7  A    between atoms: C_11  and  O_12
REMARK    8  A    between atoms: O_12  and  C_13
REMARK    9  A    between atoms: C_18  and  O_19
REMARK   10  A    between atoms: C_20  and  O_22
REMARK   11  A    between atoms: O_22  and  C_23
REMARK   12  A    between atoms: C_28  and  N_29
REMARK   13  A    between atoms: C_30  and  C_32
REMARK   14  A    between atoms: C_32  and  N_33
REMARK   15  A    between atoms: C_32  and  C_34
REMARK   16  A    between atoms: C_34  and  C_35
REMARK   17  A    between atoms: C_35  and  O_36
REMARK   18  A    between atoms: O_36  and  C_37
REMARK   19  A    between atoms: C_37  and  C_38
REMARK   20  A    between atoms: C_38  and  O_39
REMARK                            x       y       z     vdW  Elec       q    Type
REMARK                         _______ _______ _______ _____ _____    ______ ____
ROOT
ATOM      1  C   UNL     1     115.989  73.092  83.442  0.00  0.00    +0.000 C 
ATOM      2  O   UNL     1     116.401  72.592  84.480  0.00  0.00    +0.000 OA
ENDROOT
BRANCH   1   7
ATOM      3  C   UNL     1     116.420  72.156  81.178  0.00  0.00    +0.000 C 
ATOM      4  C   UNL     1     115.956  70.948  80.363  0.00  0.00    +0.000 C 
ATOM      5  C   UNL     1     115.402  69.963  81.390  0.00  0.00    +0.000 C 
ATOM      6  C   UNL     1     115.089  70.763  82.659  0.00  0.00    +0.000 C 
ATOM      7  C   UNL     1     115.366  72.229  82.317  0.00  0.00    +0.000 C 
BRANCH   3   9
ATOM      8  C   UNL     1     117.852  74.084  80.239  0.00  0.00    +0.000 C 
ATOM      9  C   UNL     1     116.479  73.476  80.382  0.00  0.00    +0.000 C 
ENDBRANCH   3   9
BRANCH   7  10
ATOM     10  O   UNL     1     114.191  72.838  81.727  0.00  0.00    +0.000 OA
BRANCH  10  11
ATOM     11  C   UNL     1     112.991  72.612  82.329  0.00  0.00    +0.000 C 
ATOM     12  O   UNL     1     112.743  72.887  83.494  0.00  0.00    +0.000 OA
BRANCH  11  13
ATOM     13  C   UNL     1     111.996  72.075  81.290  0.00  0.00    +0.000 C 
BRANCH  13  14
ATOM     14  O   UNL     1     112.495  71.345  80.174  0.00  0.00    +0.000 OA
BRANCH  14  15
ATOM     15  C   UNL     1     111.695  71.418  78.976  0.00  0.00    +0.000 C 
ATOM     16  C   UNL     1     110.852  72.703  78.932  0.00  0.00    +0.000 C 
ATOM     17  C   UNL     1     110.184  72.918  77.578  0.00  0.00    +0.000 C 
ATOM     18  C   UNL     1     111.183  72.879  76.430  0.00  0.00    +0.000 C 
ATOM     19  C   UNL     1     111.962  71.564  76.440  0.00  0.00    +0.000 C 
ATOM     20  C   UNL     1     112.675  71.365  77.777  0.00  0.00    +0.000 C 
BRANCH  20  21
ATOM     21  O   UNL     1     113.661  72.401  77.901  0.00  0.00    +0.000 OA
ATOM     22  H   UNL     1     113.362  72.963  78.642  0.00  0.00    +0.000 HD
ENDBRANCH  20  21
ENDBRANCH  14  15
ENDBRANCH  13  14
ENDBRANCH  11  13
ENDBRANCH  10  11
ENDBRANCH   7  10
ENDBRANCH   1   7
BRANCH   1  23
ATOM     23  O   UNL     1     115.916  74.417  83.175  0.00  0.00    +0.000 OA
BRANCH  23  24
ATOM     24  C   UNL     1     115.961  75.456  84.195  0.00  0.00    +0.000 C 
ATOM     25  C   UNL     1     117.415  75.485  84.686  0.00  0.00    +0.000 C 
ATOM     26  C   UNL     1     117.619  76.497  85.801  0.00  0.00    +0.000 C 
ATOM     27  O   UNL     1     116.702  76.271  86.869  0.00  0.00    +0.000 OA
ATOM     28  C   UNL     1     115.342  76.417  86.446  0.00  0.00    +0.000 C 
ATOM     29  C   UNL     1     115.000  75.348  85.402  0.00  0.00    +0.000 C 
BRANCH  29  30
ATOM     30  N   UNL     1     113.585  75.320  85.024  0.00  0.00    +0.000 N 
ATOM     31  C   UNL     1     112.877  76.388  84.512  0.00  0.00    +0.000 C 
ATOM     32  O   UNL     1     113.328  77.528  84.476  0.00  0.00    +0.000 OA
ATOM     33  H   UNL     1     113.267  74.392  84.747  0.00  0.00    +0.000 HD
BRANCH  31  34
ATOM     34  C   UNL     1     111.463  75.980  84.017  0.00  0.00    +0.000 C 
BRANCH  34  35
ATOM     35  N   UNL     1     110.451  76.645  84.874  0.00  0.00    +0.000 NA
ATOM     36  H   UNL     1     110.774  76.621  85.843  0.00  0.00    +0.000 HD
ATOM     37  H   UNL     1     109.594  76.096  84.866  0.00  0.00    +0.000 HD
ENDBRANCH  34  35
BRANCH  34  38
ATOM     38  C   UNL     1     111.188  76.362  82.563  0.00  0.00    +0.000 C 
BRANCH  38  39
ATOM     39  C   UNL     1     112.314  75.995  81.598  0.00  0.00    +0.000 C 
BRANCH  39  40
ATOM     40  O   UNL     1     112.957  77.159  81.063  0.00  0.00    +0.000 OA
BRANCH  40  41
ATOM     41  C   UNL     1     113.319  76.921  79.690  0.00  0.00    +0.000 C 
BRANCH  41  42
ATOM     42  C   UNL     1     113.234  75.435  79.365  0.00  0.00    +0.000 C 
BRANCH  42  43
ATOM     43  O   UNL     1     113.315  75.231  77.956  0.00  0.00    +0.000 OA
ATOM     44  H   UNL     1     112.422  74.942  77.678  0.00  0.00    +0.000 HD
ENDBRANCH  42  43
ENDBRANCH  41  42
ENDBRANCH  40  41
ENDBRANCH  39  40
ENDBRANCH  38  39
ENDBRANCH  34  38
ENDBRANCH  31  34
ENDBRANCH  29  30
ENDBRANCH  23  24
ENDBRANCH   1  23
TORSDOF 19
ENDMDL
MODEL 5
REMARK VINA RESULT:      -6.3      2.597      4.105
REMARK  Name = 
REMARK  20 active torsions:
REMARK  status: ('A' for Active; 'I' for Inactive)
REMARK    1  A    between atoms: C_1  and  C_2
REMARK    2  A    between atoms: C_2  and  C_3
REMARK    3  A    between atoms: C_7  and  O_8
REMARK    4  A    between atoms: C_7  and  C_20
REMARK    5  A    between atoms: O_8  and  C_9
REMARK    6  A    between atoms: C_9  and  C_11
REMARK    7  A    between atoms: C_11  and  O_12
REMARK    8  A    between atoms: O_12  and  C_13
REMARK    9  A    between atoms: C_18  and  O_19
REMARK   10  A    between atoms: C_20  and  O_22
REMARK   11  A    between atoms: O_22  and  C_23
REMARK   12  A    between atoms: C_28  and  N_29
REMARK   13  A    between atoms: C_30  and  C_32
REMARK   14  A    between atoms: C_32  and  N_33
REMARK   15  A    between atoms: C_32  and  C_34
REMARK   16  A    between atoms: C_34  and  C_35
REMARK   17  A    between atoms: C_35  and  O_36
REMARK   18  A    between atoms: O_36  and  C_37
REMARK   19  A    between atoms: C_37  and  C_38
REMARK   20  A    between atoms: C_38  and  O_39
REMARK                            x       y       z     vdW  Elec       q    Type
REMARK                         _______ _______ _______ _____ _____    ______ ____
ROOT
ATOM      1  C   UNL     1     114.669  73.701  79.321  0.00  0.00    +0.000 C 
ATOM      2  O   UNL     1     115.097  73.267  80.382  0.00  0.00    +0.000 OA
ENDROOT
BRANCH   1   7
ATOM      3  C   UNL     1     115.581  74.959  77.378  0.00  0.00    +0.000 C 
ATOM      4  C   UNL     1     115.458  76.371  76.806  0.00  0.00    +0.000 C 
ATOM      5  C   UNL     1     114.181  76.940  77.418  0.00  0.00    +0.000 C 
ATOM      6  C   UNL     1     113.867  76.104  78.664  0.00  0.00    +0.000 C 
ATOM      7  C   UNL     1     115.030  75.122  78.822  0.00  0.00    +0.000 C 
BRANCH   3   9
ATOM      8  C   UNL     1     117.215  73.111  76.623  0.00  0.00    +0.000 C 
ATOM      9  C   UNL     1     117.019  74.398  77.386  0.00  0.00    +0.000 C 
ENDBRANCH   3   9
BRANCH   7  10
ATOM     10  O   UNL     1     116.102  75.730  79.585  0.00  0.00    +0.000 OA
BRANCH  10  11
ATOM     11  C   UNL     1     115.795  76.810  80.356  0.00  0.00    +0.000 C 
ATOM     12  O   UNL     1     115.909  77.971  79.990  0.00  0.00    +0.000 OA
BRANCH  11  13
ATOM     13  C   UNL     1     115.190  76.330  81.682  0.00  0.00    +0.000 C 
BRANCH  13  14
ATOM     14  O   UNL     1     114.013  76.966  82.170  0.00  0.00    +0.000 OA
BRANCH  14  15
ATOM     15  C   UNL     1     112.933  76.080  82.530  0.00  0.00    +0.000 C 
ATOM     16  C   UNL     1     113.452  74.717  83.016  0.00  0.00    +0.000 C 
ATOM     17  C   UNL     1     112.351  73.854  83.624  0.00  0.00    +0.000 C 
ATOM     18  C   UNL     1     111.596  74.578  84.730  0.00  0.00    +0.000 C 
ATOM     19  C   UNL     1     111.020  75.896  84.213  0.00  0.00    +0.000 C 
ATOM     20  C   UNL     1     112.125  76.788  83.648  0.00  0.00    +0.000 C 
BRANCH  20  21
ATOM     21  O   UNL     1     112.994  77.142  84.734  0.00  0.00    +0.000 OA
ATOM     22  H   UNL     1     112.762  76.540  85.467  0.00  0.00    +0.000 HD
ENDBRANCH  20  21
ENDBRANCH  14  15
ENDBRANCH  13  14
ENDBRANCH  11  13
ENDBRANCH  10  11
ENDBRANCH   7  10
ENDBRANCH   1   7
BRANCH   1  23
ATOM     23  O   UNL     1     113.945  73.004  78.414  0.00  0.00    +0.000 OA
BRANCH  23  24
ATOM     24  C   UNL     1     112.503  73.129  78.256  0.00  0.00    +0.000 C 
ATOM     25  C   UNL     1     111.899  72.001  79.105  0.00  0.00    +0.000 C 
ATOM     26  C   UNL     1     110.384  71.964  79.007  0.00  0.00    +0.000 C 
ATOM     27  O   UNL     1     109.961  71.890  77.648  0.00  0.00    +0.000 OA
ATOM     28  C   UNL     1     110.379  73.034  76.895  0.00  0.00    +0.000 C 
ATOM     29  C   UNL     1     111.909  73.088  76.829  0.00  0.00    +0.000 C 
BRANCH  29  30
ATOM     30  N   UNL     1     112.428  74.137  75.948  0.00  0.00    +0.000 N 
ATOM     31  C   UNL     1     112.826  73.953  74.640  0.00  0.00    +0.000 C 
ATOM     32  O   UNL     1     112.940  72.844  74.130  0.00  0.00    +0.000 OA
ATOM     33  H   UNL     1     112.080  75.065  76.189  0.00  0.00    +0.000 HD
BRANCH  31  34
ATOM     34  C   UNL     1     113.125  75.294  73.916  0.00  0.00    +0.000 C 
BRANCH  34  35
ATOM     35  N   UNL     1     114.533  75.278  73.450  0.00  0.00    +0.000 NA
ATOM     36  H   UNL     1     114.543  75.379  72.434  0.00  0.00    +0.000 HD
ATOM     37  H   UNL     1     114.934  74.360  73.630  0.00  0.00    +0.000 HD
ENDBRANCH  34  35
BRANCH  34  38
ATOM     38  C   UNL     1     112.222  75.556  72.710  0.00  0.00    +0.000 C 
BRANCH  38  39
ATOM     39  C   UNL     1     112.022  77.036  72.390  0.00  0.00    +0.000 C 
BRANCH  39  40
ATOM     40  O   UNL     1     112.268  77.865  73.533  0.00  0.00    +0.000 OA
BRANCH  40  41
ATOM     41  C   UNL     1     113.356  78.764  73.251  0.00  0.00    +0.000 C 
BRANCH  41  42
ATOM     42  C   UNL     1     113.096  79.530  71.961  0.00  0.00    +0.000 C 
BRANCH  42  43
ATOM     43  O   UNL     1     112.078  80.507  72.161  0.00  0.00    +0.000 OA
ATOM     44  H   UNL     1     112.256  80.901  73.038  0.00  0.00    +0.000 HD
ENDBRANCH  42  43
ENDBRANCH  41  42
ENDBRANCH  40  41
ENDBRANCH  39  40
ENDBRANCH  38  39
ENDBRANCH  34  38
ENDBRANCH  31  34
ENDBRANCH  29  30
ENDBRANCH  23  24
ENDBRANCH   1  23
TORSDOF 19
ENDMDL
MODEL 6
REMARK VINA RESULT:      -6.2      2.539      3.792
REMARK  Name = 
REMARK  20 active torsions:
REMARK  status: ('A' for Active; 'I' for Inactive)
REMARK    1  A    between atoms: C_1  and  C_2
REMARK    2  A    between atoms: C_2  and  C_3
REMARK    3  A    between atoms: C_7  and  O_8
REMARK    4  A    between atoms: C_7  and  C_20
REMARK    5  A    between atoms: O_8  and  C_9
REMARK    6  A    between atoms: C_9  and  C_11
REMARK    7  A    between atoms: C_11  and  O_12
REMARK    8  A    between atoms: O_12  and  C_13
REMARK    9  A    between atoms: C_18  and  O_19
REMARK   10  A    between atoms: C_20  and  O_22
REMARK   11  A    between atoms: O_22  and  C_23
REMARK   12  A    between atoms: C_28  and  N_29
REMARK   13  A    between atoms: C_30  and  C_32
REMARK   14  A    between atoms: C_32  and  N_33
REMARK   15  A    between atoms: C_32  and  C_34
REMARK   16  A    between atoms: C_34  and  C_35
REMARK   17  A    between atoms: C_35  and  O_36
REMARK   18  A    between atoms: O_36  and  C_37
REMARK   19  A    between atoms: C_37  and  C_38
REMARK   20  A    between atoms: C_38  and  O_39
REMARK                            x       y       z     vdW  Elec       q    Type
REMARK                         _______ _______ _______ _____ _____    ______ ____
ROOT
ATOM      1  C   UNL     1     113.564  74.547  79.606  0.00  0.00    +0.000 C 
ATOM      2  O   UNL     1     112.901  74.896  78.638  0.00  0.00    +0.000 OA
ENDROOT
BRANCH   1   7
ATOM      3  C   UNL     1     112.263  72.710  80.663  0.00  0.00    +0.000 C 
ATOM      4  C   UNL     1     112.061  72.153  82.072  0.00  0.00    +0.000 C 
ATOM      5  C   UNL     1     113.253  72.663  82.877  0.00  0.00    +0.000 C 
ATOM      6  C   UNL     1     113.829  73.864  82.118  0.00  0.00    +0.000 C 
ATOM      7  C   UNL     1     112.895  74.104  80.930  0.00  0.00    +0.000 C 
BRANCH   3   9
ATOM      8  C   UNL     1     110.808  71.817  78.729  0.00  0.00    +0.000 C 
ATOM      9  C   UNL     1     110.966  72.831  79.835  0.00  0.00    +0.000 C 
ENDBRANCH   3   9
BRANCH   7  10
ATOM     10  O   UNL     1     111.796  74.965  81.320  0.00  0.00    +0.000 OA
BRANCH  10  11
ATOM     11  C   UNL     1     112.103  76.166  81.885  0.00  0.00    +0.000 C 
ATOM     12  O   UNL     1     112.836  76.999  81.373  0.00  0.00    +0.000 OA
BRANCH  11  13
ATOM     13  C   UNL     1     111.301  76.335  83.182  0.00  0.00    +0.000 C 
BRANCH  13  14
ATOM     14  O   UNL     1     112.005  76.523  84.406  0.00  0.00    +0.000 OA
BRANCH  14  15
ATOM     15  C   UNL     1     113.443  76.557  84.296  0.00  0.00    +0.000 C 
ATOM     16  C   UNL     1     114.008  77.944  84.644  0.00  0.00    +0.000 C 
ATOM     17  C   UNL     1     115.528  77.943  84.765  0.00  0.00    +0.000 C 
ATOM     18  C   UNL     1     116.027  76.888  85.743  0.00  0.00    +0.000 C 
ATOM     19  C   UNL     1     115.520  75.503  85.343  0.00  0.00    +0.000 C 
ATOM     20  C   UNL     1     113.994  75.483  85.267  0.00  0.00    +0.000 C 
BRANCH  20  21
ATOM     21  O   UNL     1     113.491  75.713  86.591  0.00  0.00    +0.000 OA
ATOM     22  H   UNL     1     114.106  75.250  87.192  0.00  0.00    +0.000 HD
ENDBRANCH  20  21
ENDBRANCH  14  15
ENDBRANCH  13  14
ENDBRANCH  11  13
ENDBRANCH  10  11
ENDBRANCH   7  10
ENDBRANCH   1   7
BRANCH   1  23
ATOM     23  O   UNL     1     114.909  74.396  79.633  0.00  0.00    +0.000 OA
BRANCH  23  24
ATOM     24  C   UNL     1     115.685  73.824  78.541  0.00  0.00    +0.000 C 
ATOM     25  C   UNL     1     116.690  72.874  79.208  0.00  0.00    +0.000 C 
ATOM     26  C   UNL     1     117.618  72.225  78.195  0.00  0.00    +0.000 C 
ATOM     27  O   UNL     1     118.268  73.209  77.394  0.00  0.00    +0.000 OA
ATOM     28  C   UNL     1     117.333  73.984  76.636  0.00  0.00    +0.000 C 
ATOM     29  C   UNL     1     116.425  74.781  77.579  0.00  0.00    +0.000 C 
BRANCH  29  30
ATOM     30  N   UNL     1     115.538  75.723  76.892  0.00  0.00    +0.000 N 
ATOM     31  C   UNL     1     115.279  77.015  77.302  0.00  0.00    +0.000 C 
ATOM     32  O   UNL     1     115.643  77.453  78.387  0.00  0.00    +0.000 OA
ATOM     33  H   UNL     1     115.468  75.544  75.891  0.00  0.00    +0.000 HD
BRANCH  31  34
ATOM     34  C   UNL     1     114.469  77.820  76.251  0.00  0.00    +0.000 C 
BRANCH  34  35
ATOM     35  N   UNL     1     115.418  78.443  75.295  0.00  0.00    +0.000 NA
ATOM     36  H   UNL     1     115.271  78.031  74.372  0.00  0.00    +0.000 HD
ATOM     37  H   UNL     1     116.369  78.185  75.552  0.00  0.00    +0.000 HD
ENDBRANCH  34  35
BRANCH  34  38
ATOM     38  C   UNL     1     113.476  76.970  75.457  0.00  0.00    +0.000 C 
BRANCH  38  39
ATOM     39  C   UNL     1     113.446  77.280  73.962  0.00  0.00    +0.000 C 
BRANCH  39  40
ATOM     40  O   UNL     1     112.707  78.476  73.681  0.00  0.00    +0.000 OA
BRANCH  40  41
ATOM     41  C   UNL     1     112.629  78.671  72.257  0.00  0.00    +0.000 C 
BRANCH  41  42
ATOM     42  C   UNL     1     113.958  79.180  71.713  0.00  0.00    +0.000 C 
BRANCH  42  43
ATOM     43  O   UNL     1     113.879  79.359  70.301  0.00  0.00    +0.000 OA
ATOM     44  H   UNL     1     114.690  79.846  70.050  0.00  0.00    +0.000 HD
ENDBRANCH  42  43
ENDBRANCH  41  42
ENDBRANCH  40  41
ENDBRANCH  39  40
ENDBRANCH  38  39
ENDBRANCH  34  38
ENDBRANCH  31  34
ENDBRANCH  29  30
ENDBRANCH  23  24
ENDBRANCH   1  23
TORSDOF 19
ENDMDL
MODEL 7
REMARK VINA RESULT:      -6.2      3.081      4.816
REMARK  Name = 
REMARK  20 active torsions:
REMARK  status: ('A' for Active; 'I' for Inactive)
REMARK    1  A    between atoms: C_1  and  C_2
REMARK    2  A    between atoms: C_2  and  C_3
REMARK    3  A    between atoms: C_7  and  O_8
REMARK    4  A    between atoms: C_7  and  C_20
REMARK    5  A    between atoms: O_8  and  C_9
REMARK    6  A    between atoms: C_9  and  C_11
REMARK    7  A    between atoms: C_11  and  O_12
REMARK    8  A    between atoms: O_12  and  C_13
REMARK    9  A    between atoms: C_18  and  O_19
REMARK   10  A    between atoms: C_20  and  O_22
REMARK   11  A    between atoms: O_22  and  C_23
REMARK   12  A    between atoms: C_28  and  N_29
REMARK   13  A    between atoms: C_30  and  C_32
REMARK   14  A    between atoms: C_32  and  N_33
REMARK   15  A    between atoms: C_32  and  C_34
REMARK   16  A    between atoms: C_34  and  C_35
REMARK   17  A    between atoms: C_35  and  O_36
REMARK   18  A    between atoms: O_36  and  C_37
REMARK   19  A    between atoms: C_37  and  C_38
REMARK   20  A    between atoms: C_38  and  O_39
REMARK                            x       y       z     vdW  Elec       q    Type
REMARK                         _______ _______ _______ _____ _____    ______ ____
ROOT
ATOM      1  C   UNL     1     114.082  73.779  83.194  0.00  0.00    +0.000 C 
ATOM      2  O   UNL     1     113.952  72.916  84.052  0.00  0.00    +0.000 OA
ENDROOT
BRANCH   1   7
ATOM      3  C   UNL     1     112.722  75.450  81.952  0.00  0.00    +0.000 C 
ATOM      4  C   UNL     1     111.705  76.539  82.295  0.00  0.00    +0.000 C 
ATOM      5  C   UNL     1     111.202  76.188  83.693  0.00  0.00    +0.000 C 
ATOM      6  C   UNL     1     112.241  75.255  84.326  0.00  0.00    +0.000 C 
ATOM      7  C   UNL     1     113.393  75.160  83.322  0.00  0.00    +0.000 C 
BRANCH   3   9
ATOM      8  C   UNL     1     113.305  76.911  79.907  0.00  0.00    +0.000 C 
ATOM      9  C   UNL     1     113.765  75.865  80.892  0.00  0.00    +0.000 C 
ENDBRANCH   3   9
BRANCH   7  10
ATOM     10  O   UNL     1     114.336  76.241  83.535  0.00  0.00    +0.000 OA
BRANCH  10  11
ATOM     11  C   UNL     1     114.416  76.773  84.786  0.00  0.00    +0.000 C 
ATOM     12  O   UNL     1     113.887  77.823  85.122  0.00  0.00    +0.000 OA
BRANCH  11  13
ATOM     13  C   UNL     1     115.163  75.797  85.705  0.00  0.00    +0.000 C 
BRANCH  13  14
ATOM     14  O   UNL     1     115.230  76.081  87.099  0.00  0.00    +0.000 OA
BRANCH  14  15
ATOM     15  C   UNL     1     116.514  76.532  87.579  0.00  0.00    +0.000 C 
ATOM     16  C   UNL     1     117.500  76.774  86.425  0.00  0.00    +0.000 C 
ATOM     17  C   UNL     1     118.777  77.473  86.884  0.00  0.00    +0.000 C 
ATOM     18  C   UNL     1     118.488  78.764  87.637  0.00  0.00    +0.000 C 
ATOM     19  C   UNL     1     117.566  78.497  88.826  0.00  0.00    +0.000 C 
ATOM     20  C   UNL     1     116.263  77.842  88.369  0.00  0.00    +0.000 C 
BRANCH  20  21
ATOM     21  O   UNL     1     115.568  78.788  87.544  0.00  0.00    +0.000 OA
ATOM     22  H   UNL     1     115.275  78.289  86.757  0.00  0.00    +0.000 HD
ENDBRANCH  20  21
ENDBRANCH  14  15
ENDBRANCH  13  14
ENDBRANCH  11  13
ENDBRANCH  10  11
ENDBRANCH   7  10
ENDBRANCH   1   7
BRANCH   1  23
ATOM     23  O   UNL     1     114.893  73.705  82.113  0.00  0.00    +0.000 OA
BRANCH  23  24
ATOM     24  C   UNL     1     115.219  72.465  81.423  0.00  0.00    +0.000 C 
ATOM     25  C   UNL     1     116.732  72.282  81.602  0.00  0.00    +0.000 C 
ATOM     26  C   UNL     1     117.244  71.041  80.890  0.00  0.00    +0.000 C 
ATOM     27  O   UNL     1     116.869  71.051  79.514  0.00  0.00    +0.000 OA
ATOM     28  C   UNL     1     115.447  71.045  79.348  0.00  0.00    +0.000 C 
ATOM     29  C   UNL     1     114.846  72.330  79.928  0.00  0.00    +0.000 C 
BRANCH  29  30
ATOM     30  N   UNL     1     113.413  72.485  79.666  0.00  0.00    +0.000 N 
ATOM     31  C   UNL     1     112.405  71.831  80.344  0.00  0.00    +0.000 C 
ATOM     32  O   UNL     1     112.619  70.919  81.134  0.00  0.00    +0.000 OA
ATOM     33  H   UNL     1     113.178  73.397  79.276  0.00  0.00    +0.000 HD
BRANCH  31  34
ATOM     34  C   UNL     1     110.995  72.368  79.974  0.00  0.00    +0.000 C 
BRANCH  34  35
ATOM     35  N   UNL     1     111.125  73.780  79.538  0.00  0.00    +0.000 NA
ATOM     36  H   UNL     1     112.112  74.043  79.567  0.00  0.00    +0.000 HD
ATOM     37  H   UNL     1     110.670  74.384  80.220  0.00  0.00    +0.000 HD
ENDBRANCH  34  35
BRANCH  34  38
ATOM     38  C   UNL     1     110.312  71.581  78.856  0.00  0.00    +0.000 C 
BRANCH  38  39
ATOM     39  C   UNL     1     110.430  72.226  77.477  0.00  0.00    +0.000 C 
BRANCH  39  40
ATOM     40  O   UNL     1     111.713  71.984  76.885  0.00  0.00    +0.000 OA
BRANCH  40  41
ATOM     41  C   UNL     1     111.984  72.994  75.895  0.00  0.00    +0.000 C 
BRANCH  41  42
ATOM     42  C   UNL     1     113.228  73.789  76.267  0.00  0.00    +0.000 C 
BRANCH  42  43
ATOM     43  O   UNL     1     112.991  74.557  77.445  0.00  0.00    +0.000 OA
ATOM     44  H   UNL     1     112.555  75.379  77.143  0.00  0.00    +0.000 HD
ENDBRANCH  42  43
ENDBRANCH  41  42
ENDBRANCH  40  41
ENDBRANCH  39  40
ENDBRANCH  38  39
ENDBRANCH  34  38
ENDBRANCH  31  34
ENDBRANCH  29  30
ENDBRANCH  23  24
ENDBRANCH   1  23
TORSDOF 19
ENDMDL
MODEL 8
REMARK VINA RESULT:      -6.1      2.621      9.996
REMARK  Name = 
REMARK  20 active torsions:
REMARK  status: ('A' for Active; 'I' for Inactive)
REMARK    1  A    between atoms: C_1  and  C_2
REMARK    2  A    between atoms: C_2  and  C_3
REMARK    3  A    between atoms: C_7  and  O_8
REMARK    4  A    between atoms: C_7  and  C_20
REMARK    5  A    between atoms: O_8  and  C_9
REMARK    6  A    between atoms: C_9  and  C_11
REMARK    7  A    between atoms: C_11  and  O_12
REMARK    8  A    between atoms: O_12  and  C_13
REMARK    9  A    between atoms: C_18  and  O_19
REMARK   10  A    between atoms: C_20  and  O_22
REMARK   11  A    between atoms: O_22  and  C_23
REMARK   12  A    between atoms: C_28  and  N_29
REMARK   13  A    between atoms: C_30  and  C_32
REMARK   14  A    between atoms: C_32  and  N_33
REMARK   15  A    between atoms: C_32  and  C_34
REMARK   16  A    between atoms: C_34  and  C_35
REMARK   17  A    between atoms: C_35  and  O_36
REMARK   18  A    between atoms: O_36  and  C_37
REMARK   19  A    between atoms: C_37  and  C_38
REMARK   20  A    between atoms: C_38  and  O_39
REMARK                            x       y       z     vdW  Elec       q    Type
REMARK                         _______ _______ _______ _____ _____    ______ ____
ROOT
ATOM      1  C   UNL     1     113.757  75.899  75.979  0.00  0.00    +0.000 C 
ATOM      2  O   UNL     1     114.607  76.096  76.838  0.00  0.00    +0.000 OA
ENDROOT
BRANCH   1   7
ATOM      3  C   UNL     1     113.989  75.472  73.540  0.00  0.00    +0.000 C 
ATOM      4  C   UNL     1     113.573  76.163  72.241  0.00  0.00    +0.000 C 
ATOM      5  C   UNL     1     112.450  77.118  72.639  0.00  0.00    +0.000 C 
ATOM      6  C   UNL     1     112.564  77.343  74.151  0.00  0.00    +0.000 C 
ATOM      7  C   UNL     1     113.824  76.597  74.598  0.00  0.00    +0.000 C 
BRANCH   3   9
ATOM      8  C   UNL     1     115.561  73.462  73.916  0.00  0.00    +0.000 C 
ATOM      9  C   UNL     1     115.428  74.914  73.532  0.00  0.00    +0.000 C 
ENDBRANCH   3   9
BRANCH   7  10
ATOM     10  O   UNL     1     114.989  77.446  74.453  0.00  0.00    +0.000 OA
BRANCH  10  11
ATOM     11  C   UNL     1     114.865  78.756  74.806  0.00  0.00    +0.000 C 
ATOM     12  O   UNL     1     114.573  79.142  75.928  0.00  0.00    +0.000 OA
BRANCH  11  13
ATOM     13  C   UNL     1     115.259  79.640  73.614  0.00  0.00    +0.000 C 
BRANCH  13  14
ATOM     14  O   UNL     1     114.274  80.492  73.036  0.00  0.00    +0.000 OA
BRANCH  14  15
ATOM     15  C   UNL     1     114.766  81.440  72.066  0.00  0.00    +0.000 C 
ATOM     16  C   UNL     1     113.717  81.742  70.984  0.00  0.00    +0.000 C 
ATOM     17  C   UNL     1     114.120  82.909  70.089  0.00  0.00    +0.000 C 
ATOM     18  C   UNL     1     114.455  84.160  70.890  0.00  0.00    +0.000 C 
ATOM     19  C   UNL     1     115.552  83.865  71.911  0.00  0.00    +0.000 C 
ATOM     20  C   UNL     1     115.135  82.728  72.844  0.00  0.00    +0.000 C 
BRANCH  20  21
ATOM     21  O   UNL     1     114.008  83.184  73.606  0.00  0.00    +0.000 OA
ATOM     22  H   UNL     1     114.258  84.063  73.949  0.00  0.00    +0.000 HD
ENDBRANCH  20  21
ENDBRANCH  14  15
ENDBRANCH  13  14
ENDBRANCH  11  13
ENDBRANCH  10  11
ENDBRANCH   7  10
ENDBRANCH   1   7
BRANCH   1  23
ATOM     23  O   UNL     1     112.744  75.005  76.057  0.00  0.00    +0.000 OA
BRANCH  23  24
ATOM     24  C   UNL     1     112.861  73.695  76.682  0.00  0.00    +0.000 C 
ATOM     25  C   UNL     1     112.190  72.715  75.709  0.00  0.00    +0.000 C 
ATOM     26  C   UNL     1     112.187  71.294  76.244  0.00  0.00    +0.000 C 
ATOM     27  O   UNL     1     111.600  71.239  77.542  0.00  0.00    +0.000 OA
ATOM     28  C   UNL     1     112.333  72.019  78.494  0.00  0.00    +0.000 C 
ATOM     29  C   UNL     1     112.287  73.500  78.104  0.00  0.00    +0.000 C 
BRANCH  29  30
ATOM     30  N   UNL     1     112.878  74.394  79.102  0.00  0.00    +0.000 N 
ATOM     31  C   UNL     1     112.348  74.656  80.349  0.00  0.00    +0.000 C 
ATOM     32  O   UNL     1     111.228  74.287  80.686  0.00  0.00    +0.000 OA
ATOM     33  H   UNL     1     113.891  74.470  79.017  0.00  0.00    +0.000 HD
BRANCH  31  34
ATOM     34  C   UNL     1     113.316  75.475  81.246  0.00  0.00    +0.000 C 
BRANCH  34  35
ATOM     35  N   UNL     1     113.010  76.917  81.080  0.00  0.00    +0.000 NA
ATOM     36  H   UNL     1     112.029  77.015  80.811  0.00  0.00    +0.000 HD
ATOM     37  H   UNL     1     113.539  77.282  80.291  0.00  0.00    +0.000 HD
ENDBRANCH  34  35
BRANCH  34  38
ATOM     38  C   UNL     1     113.216  75.130  82.732  0.00  0.00    +0.000 C 
BRANCH  38  39
ATOM     39  C   UNL     1     112.285  76.046  83.523  0.00  0.00    +0.000 C 
BRANCH  39  40
ATOM     40  O   UNL     1     112.933  77.268  83.898  0.00  0.00    +0.000 OA
BRANCH  40  41
ATOM     41  C   UNL     1     114.006  76.982  84.815  0.00  0.00    +0.000 C 
BRANCH  41  42
ATOM     42  C   UNL     1     115.299  77.635  84.345  0.00  0.00    +0.000 C 
BRANCH  42  43
ATOM     43  O   UNL     1     115.188  78.029  82.980  0.00  0.00    +0.000 OA
ATOM     44  H   UNL     1     114.473  78.696  82.953  0.00  0.00    +0.000 HD
ENDBRANCH  42  43
ENDBRANCH  41  42
ENDBRANCH  40  41
ENDBRANCH  39  40
ENDBRANCH  38  39
ENDBRANCH  34  38
ENDBRANCH  31  34
ENDBRANCH  29  30
ENDBRANCH  23  24
ENDBRANCH   1  23
TORSDOF 19
ENDMDL
MODEL 9
REMARK VINA RESULT:      -6.1      1.540      2.040
REMARK  Name = 
REMARK  20 active torsions:
REMARK  status: ('A' for Active; 'I' for Inactive)
REMARK    1  A    between atoms: C_1  and  C_2
REMARK    2  A    between atoms: C_2  and  C_3
REMARK    3  A    between atoms: C_7  and  O_8
REMARK    4  A    between atoms: C_7  and  C_20
REMARK    5  A    between atoms: O_8  and  C_9
REMARK    6  A    between atoms: C_9  and  C_11
REMARK    7  A    between atoms: C_11  and  O_12
REMARK    8  A    between atoms: O_12  and  C_13
REMARK    9  A    between atoms: C_18  and  O_19
REMARK   10  A    between atoms: C_20  and  O_22
REMARK   11  A    between atoms: O_22  and  C_23
REMARK   12  A    between atoms: C_28  and  N_29
REMARK   13  A    between atoms: C_30  and  C_32
REMARK   14  A    between atoms: C_32  and  N_33
REMARK   15  A    between atoms: C_32  and  C_34
REMARK   16  A    between atoms: C_34  and  C_35
REMARK   17  A    between atoms: C_35  and  O_36
REMARK   18  A    between atoms: O_36  and  C_37
REMARK   19  A    between atoms: C_37  and  C_38
REMARK   20  A    between atoms: C_38  and  O_39
REMARK                            x       y       z     vdW  Elec       q    Type
REMARK                         _______ _______ _______ _____ _____    ______ ____
ROOT
ATOM      1  C   UNL     1     113.774  75.029  80.141  0.00  0.00    +0.000 C 
ATOM      2  O   UNL     1     114.022  76.031  79.483  0.00  0.00    +0.000 OA
ENDROOT
BRANCH   1   7
ATOM      3  C   UNL     1     112.596  74.732  82.311  0.00  0.00    +0.000 C 
ATOM      4  C   UNL     1     112.951  74.243  83.715  0.00  0.00    +0.000 C 
ATOM      5  C   UNL     1     114.230  73.427  83.543  0.00  0.00    +0.000 C 
ATOM      6  C   UNL     1     114.859  73.851  82.211  0.00  0.00    +0.000 C 
ATOM      7  C   UNL     1     113.989  74.991  81.674  0.00  0.00    +0.000 C 
BRANCH   3   9
ATOM      8  C   UNL     1     110.951  76.286  83.548  0.00  0.00    +0.000 C 
ATOM      9  C   UNL     1     111.720  76.003  82.282  0.00  0.00    +0.000 C 
ENDBRANCH   3   9
BRANCH   7  10
ATOM     10  O   UNL     1     114.437  76.261  82.210  0.00  0.00    +0.000 OA
BRANCH  10  11
ATOM     11  C   UNL     1     115.776  76.438  82.381  0.00  0.00    +0.000 C 
ATOM     12  O   UNL     1     116.583  76.507  81.465  0.00  0.00    +0.000 OA
BRANCH  11  13
ATOM     13  C   UNL     1     116.074  76.647  83.872  0.00  0.00    +0.000 C 
BRANCH  13  14
ATOM     14  O   UNL     1     116.189  77.977  84.369  0.00  0.00    +0.000 OA
BRANCH  14  15
ATOM     15  C   UNL     1     116.057  78.118  85.799  0.00  0.00    +0.000 C 
ATOM     16  C   UNL     1     115.865  76.758  86.490  0.00  0.00    +0.000 C 
ATOM     17  C   UNL     1     115.961  76.855  88.009  0.00  0.00    +0.000 C 
ATOM     18  C   UNL     1     117.252  77.522  88.463  0.00  0.00    +0.000 C 
ATOM     19  C   UNL     1     117.394  78.904  87.828  0.00  0.00    +0.000 C 
ATOM     20  C   UNL     1     117.349  78.810  86.303  0.00  0.00    +0.000 C 
BRANCH  20  21
ATOM     21  O   UNL     1     118.502  78.068  85.881  0.00  0.00    +0.000 OA
ATOM     22  H   UNL     1     118.905  78.591  85.161  0.00  0.00    +0.000 HD
ENDBRANCH  20  21
ENDBRANCH  14  15
ENDBRANCH  13  14
ENDBRANCH  11  13
ENDBRANCH  10  11
ENDBRANCH   7  10
ENDBRANCH   1   7
BRANCH   1  23
ATOM     23  O   UNL     1     113.199  73.896  79.672  0.00  0.00    +0.000 OA
BRANCH  23  24
ATOM     24  C   UNL     1     112.063  73.877  78.761  0.00  0.00    +0.000 C 
ATOM     25  C   UNL     1     111.169  72.727  79.245  0.00  0.00    +0.000 C 
ATOM     26  C   UNL     1     109.949  72.543  78.359  0.00  0.00    +0.000 C 
ATOM     27  O   UNL     1     110.328  72.382  76.994  0.00  0.00    +0.000 OA
ATOM     28  C   UNL     1     111.014  73.535  76.491  0.00  0.00    +0.000 C 
ATOM     29  C   UNL     1     112.333  73.732  77.246  0.00  0.00    +0.000 C 
BRANCH  29  30
ATOM     30  N   UNL     1     113.177  74.795  76.696  0.00  0.00    +0.000 N 
ATOM     31  C   UNL     1     114.460  74.625  76.217  0.00  0.00    +0.000 C 
ATOM     32  O   UNL     1     115.088  73.582  76.358  0.00  0.00    +0.000 OA
ATOM     33  H   UNL     1     112.638  75.557  76.285  0.00  0.00    +0.000 HD
BRANCH  31  34
ATOM     34  C   UNL     1     115.004  75.897  75.512  0.00  0.00    +0.000 C 
BRANCH  34  35
ATOM     35  N   UNL     1     115.074  75.637  74.053  0.00  0.00    +0.000 NA
ATOM     36  H   UNL     1     114.474  76.310  73.571  0.00  0.00    +0.000 HD
ATOM     37  H   UNL     1     114.663  74.727  73.855  0.00  0.00    +0.000 HD
ENDBRANCH  34  35
BRANCH  34  38
ATOM     38  C   UNL     1     114.144  77.140  75.739  0.00  0.00    +0.000 C 
BRANCH  38  39
ATOM     39  C   UNL     1     113.346  77.579  74.512  0.00  0.00    +0.000 C 
BRANCH  39  40
ATOM     40  O   UNL     1     112.184  76.763  74.313  0.00  0.00    +0.000 OA
BRANCH  40  41
ATOM     41  C   UNL     1     111.802  76.800  72.926  0.00  0.00    +0.000 C 
BRANCH  41  42
ATOM     42  C   UNL     1     111.971  75.428  72.287  0.00  0.00    +0.000 C 
BRANCH  42  43
ATOM     43  O   UNL     1     112.210  74.442  73.288  0.00  0.00    +0.000 OA
ATOM     44  H   UNL     1     112.562  73.662  72.814  0.00  0.00    +0.000 HD
ENDBRANCH  42  43
ENDBRANCH  41  42
ENDBRANCH  40  41
ENDBRANCH  39  40
ENDBRANCH  38  39
ENDBRANCH  34  38
ENDBRANCH  31  34
ENDBRANCH  29  30
ENDBRANCH  23  24
ENDBRANCH   1  23
TORSDOF 19
ENDMDL
