MODEL 1
REMARK VINA RESULT:      -6.4      0.000      0.000
REMARK  Name = 
REMARK  20 active torsions:
REMARK  status: ('A' for Active; 'I' for Inactive)
REMARK    1  A    between atoms: C_1  and  C_2
REMARK    2  A    between atoms: C_2  and  C_3
REMARK    3  A    between atoms: C_7  and  O_8
REMARK    4  A    between atoms: C_7  and  C_20
REMARK    5  A    between atoms: O_8  and  C_9
REMARK    6  A    between atoms: C_9  and  C_11
REMARK    7  A    between atoms: C_11  and  O_12
REMARK    8  A    between atoms: O_12  and  C_13
REMARK    9  A    between atoms: C_18  and  O_19
REMARK   10  A    between atoms: C_20  and  O_22
REMARK   11  A    between atoms: O_22  and  C_23
REMARK   12  A    between atoms: C_28  and  N_29
REMARK   13  A    between atoms: C_30  and  C_32
REMARK   14  A    between atoms: C_32  and  N_33
REMARK   15  A    between atoms: C_32  and  C_34
REMARK   16  A    between atoms: C_34  and  C_35
REMARK   17  A    between atoms: C_35  and  O_36
REMARK   18  A    between atoms: O_36  and  C_37
REMARK   19  A    between atoms: C_37  and  C_38
REMARK   20  A    between atoms: C_38  and  O_39
REMARK                            x       y       z     vdW  Elec       q    Type
REMARK                         _______ _______ _______ _____ _____    ______ ____
ROOT
ATOM      1  C   UNL     1     113.400  73.161  82.358  0.00  0.00    +0.000 C 
ATOM      2  O   UNL     1     112.897  72.852  83.430  0.00  0.00    +0.000 OA
ENDROOT
BRANCH   1   7
ATOM      3  C   UNL     1     112.713  75.600  81.903  0.00  0.00    +0.000 C 
ATOM      4  C   UNL     1     112.550  76.460  80.638  0.00  0.00    +0.000 C 
ATOM      5  C   UNL     1     113.339  75.735  79.550  0.00  0.00    +0.000 C 
ATOM      6  C   UNL     1     113.750  74.389  80.155  0.00  0.00    +0.000 C 
ATOM      7  C   UNL     1     112.773  74.151  81.328  0.00  0.00    +0.000 C 
BRANCH   3   9
ATOM      8  C   UNL     1     112.133  76.256  84.301  0.00  0.00    +0.000 C 
ATOM      9  C   UNL     1     111.600  75.862  82.932  0.00  0.00    +0.000 C 
ENDBRANCH   3   9
BRANCH   7  10
ATOM     10  O   UNL     1     111.477  73.875  80.764  0.00  0.00    +0.000 OA
BRANCH  10  11
ATOM     11  C   UNL     1     111.231  72.699  80.145  0.00  0.00    +0.000 C 
ATOM     12  O   UNL     1     111.465  71.583  80.597  0.00  0.00    +0.000 OA
BRANCH  11  13
ATOM     13  C   UNL     1     110.499  72.914  78.832  0.00  0.00    +0.000 C 
BRANCH  13  14
ATOM     14  O   UNL     1     111.227  73.498  77.760  0.00  0.00    +0.000 OA
BRANCH  14  15
ATOM     15  C   UNL     1     111.387  72.585  76.644  0.00  0.00    +0.000 C 
ATOM     16  C   UNL     1     112.271  71.375  76.995  0.00  0.00    +0.000 C 
ATOM     17  C   UNL     1     113.661  71.805  77.437  0.00  0.00    +0.000 C 
ATOM     18  C   UNL     1     114.350  72.589  76.332  0.00  0.00    +0.000 C 
ATOM     19  C   UNL     1     113.498  73.760  75.847  0.00  0.00    +0.000 C 
ATOM     20  C   UNL     1     112.075  73.330  75.478  0.00  0.00    +0.000 C 
BRANCH  20  21
ATOM     21  O   UNL     1     111.324  74.481  75.097  0.00  0.00    +0.000 OA
ATOM     22  H   UNL     1     110.921  74.262  74.237  0.00  0.00    +0.000 HD
ENDBRANCH  20  21
ENDBRANCH  14  15
ENDBRANCH  13  14
ENDBRANCH  11  13
ENDBRANCH  10  11
ENDBRANCH   7  10
ENDBRANCH   1   7
BRANCH   1  23
ATOM     23  O   UNL     1     114.596  72.700  81.897  0.00  0.00    +0.000 OA
BRANCH  23  24
ATOM     24  C   UNL     1     115.617  72.188  82.790  0.00  0.00    +0.000 C 
ATOM     25  C   UNL     1     115.518  70.674  82.959  0.00  0.00    +0.000 C 
ATOM     26  C   UNL     1     116.546  70.187  83.966  0.00  0.00    +0.000 C 
ATOM     27  O   UNL     1     116.330  70.839  85.216  0.00  0.00    +0.000 OA
ATOM     28  C   UNL     1     116.615  72.235  85.130  0.00  0.00    +0.000 C 
ATOM     29  C   UNL     1     115.693  72.958  84.127  0.00  0.00    +0.000 C 
BRANCH  29  30
ATOM     30  N   UNL     1     116.071  74.370  83.940  0.00  0.00    +0.000 N 
ATOM     31  C   UNL     1     115.708  75.347  84.839  0.00  0.00    +0.000 C 
ATOM     32  O   UNL     1     115.026  75.138  85.831  0.00  0.00    +0.000 OA
ATOM     33  H   UNL     1     116.902  74.523  83.369  0.00  0.00    +0.000 HD
BRANCH  31  34
ATOM     34  C   UNL     1     116.139  76.779  84.447  0.00  0.00    +0.000 C 
BRANCH  34  35
ATOM     35  N   UNL     1     115.865  76.971  83.005  0.00  0.00    +0.000 NA
ATOM     36  H   UNL     1     115.147  77.694  82.909  0.00  0.00    +0.000 HD
ATOM     37  H   UNL     1     115.436  76.119  82.635  0.00  0.00    +0.000 HD
ENDBRANCH  34  35
BRANCH  34  38
ATOM     38  C   UNL     1     115.328  77.808  85.246  0.00  0.00    +0.000 C 
BRANCH  38  39
ATOM     39  C   UNL     1     116.194  78.520  86.286  0.00  0.00    +0.000 C 
BRANCH  39  40
ATOM     40  O   UNL     1     115.537  78.632  87.546  0.00  0.00    +0.000 OA
BRANCH  40  41
ATOM     41  C   UNL     1     116.433  78.495  88.653  0.00  0.00    +0.000 C 
BRANCH  41  42
ATOM     42  C   UNL     1     116.457  77.037  89.067  0.00  0.00    +0.000 C 
BRANCH  42  43
ATOM     43  O   UNL     1     115.353  76.288  88.581  0.00  0.00    +0.000 OA
ATOM     44  H   UNL     1     114.757  76.897  88.113  0.00  0.00    +0.000 HD
ENDBRANCH  42  43
ENDBRANCH  41  42
ENDBRANCH  40  41
ENDBRANCH  39  40
ENDBRANCH  38  39
ENDBRANCH  34  38
ENDBRANCH  31  34
ENDBRANCH  29  30
ENDBRANCH  23  24
ENDBRANCH   1  23
TORSDOF 19
ENDMDL
MODEL 2
REMARK VINA RESULT:      -6.4      3.190      8.340
REMARK  Name = 
REMARK  20 active torsions:
REMARK  status: ('A' for Active; 'I' for Inactive)
REMARK    1  A    between atoms: C_1  and  C_2
REMARK    2  A    between atoms: C_2  and  C_3
REMARK    3  A    between atoms: C_7  and  O_8
REMARK    4  A    between atoms: C_7  and  C_20
REMARK    5  A    between atoms: O_8  and  C_9
REMARK    6  A    between atoms: C_9  and  C_11
REMARK    7  A    between atoms: C_11  and  O_12
REMARK    8  A    between atoms: O_12  and  C_13
REMARK    9  A    between atoms: C_18  and  O_19
REMARK   10  A    between atoms: C_20  and  O_22
REMARK   11  A    between atoms: O_22  and  C_23
REMARK   12  A    between atoms: C_28  and  N_29
REMARK   13  A    between atoms: C_30  and  C_32
REMARK   14  A    between atoms: C_32  and  N_33
REMARK   15  A    between atoms: C_32  and  C_34
REMARK   16  A    between atoms: C_34  and  C_35
REMARK   17  A    between atoms: C_35  and  O_36
REMARK   18  A    between atoms: O_36  and  C_37
REMARK   19  A    between atoms: C_37  and  C_38
REMARK   20  A    between atoms: C_38  and  O_39
REMARK                            x       y       z     vdW  Elec       q    Type
REMARK                         _______ _______ _______ _____ _____    ______ ____
ROOT
ATOM      1  C   UNL     1     113.131  75.555  80.446  0.00  0.00    +0.000 C 
ATOM      2  O   UNL     1     112.844  76.645  79.971  0.00  0.00    +0.000 OA
ENDROOT
BRANCH   1   7
ATOM      3  C   UNL     1     112.015  74.947  82.685  0.00  0.00    +0.000 C 
ATOM      4  C   UNL     1     112.484  74.244  83.971  0.00  0.00    +0.000 C 
ATOM      5  C   UNL     1     113.741  73.472  83.577  0.00  0.00    +0.000 C 
ATOM      6  C   UNL     1     114.078  73.917  82.150  0.00  0.00    +0.000 C 
ATOM      7  C   UNL     1     113.360  75.272  81.963  0.00  0.00    +0.000 C 
BRANCH   3   9
ATOM      8  C   UNL     1     110.553  76.152  84.396  0.00  0.00    +0.000 C 
ATOM      9  C   UNL     1     111.109  76.155  82.979  0.00  0.00    +0.000 C 
ENDBRANCH   3   9
BRANCH   7  10
ATOM     10  O   UNL     1     114.044  76.242  82.779  0.00  0.00    +0.000 OA
BRANCH  10  11
ATOM     11  C   UNL     1     115.216  76.781  82.374  0.00  0.00    +0.000 C 
ATOM     12  O   UNL     1     115.349  77.691  81.563  0.00  0.00    +0.000 OA
BRANCH  11  13
ATOM     13  C   UNL     1     116.384  76.193  83.146  0.00  0.00    +0.000 C 
BRANCH  13  14
ATOM     14  O   UNL     1     116.540  76.582  84.504  0.00  0.00    +0.000 OA
BRANCH  14  15
ATOM     15  C   UNL     1     115.960  77.884  84.771  0.00  0.00    +0.000 C 
ATOM     16  C   UNL     1     117.027  78.951  85.082  0.00  0.00    +0.000 C 
ATOM     17  C   UNL     1     117.868  78.568  86.290  0.00  0.00    +0.000 C 
ATOM     18  C   UNL     1     116.989  78.406  87.519  0.00  0.00    +0.000 C 
ATOM     19  C   UNL     1     115.836  77.434  87.272  0.00  0.00    +0.000 C 
ATOM     20  C   UNL     1     115.042  77.783  86.009  0.00  0.00    +0.000 C 
BRANCH  20  21
ATOM     21  O   UNL     1     114.028  76.800  85.810  0.00  0.00    +0.000 OA
ATOM     22  H   UNL     1     113.215  77.177  86.195  0.00  0.00    +0.000 HD
ENDBRANCH  20  21
ENDBRANCH  14  15
ENDBRANCH  13  14
ENDBRANCH  11  13
ENDBRANCH  10  11
ENDBRANCH   7  10
ENDBRANCH   1   7
BRANCH   1  23
ATOM     23  O   UNL     1     113.285  74.409  79.728  0.00  0.00    +0.000 OA
BRANCH  23  24
ATOM     24  C   UNL     1     112.173  73.771  79.050  0.00  0.00    +0.000 C 
ATOM     25  C   UNL     1     111.640  72.574  79.835  0.00  0.00    +0.000 C 
ATOM     26  C   UNL     1     110.536  71.881  79.054  0.00  0.00    +0.000 C 
ATOM     27  O   UNL     1     111.043  71.458  77.790  0.00  0.00    +0.000 OA
ATOM     28  C   UNL     1     111.360  72.574  76.957  0.00  0.00    +0.000 C 
ATOM     29  C   UNL     1     112.466  73.461  77.566  0.00  0.00    +0.000 C 
BRANCH  29  30
ATOM     30  N   UNL     1     112.701  74.681  76.774  0.00  0.00    +0.000 N 
ATOM     31  C   UNL     1     113.562  74.698  75.700  0.00  0.00    +0.000 C 
ATOM     32  O   UNL     1     114.217  73.732  75.339  0.00  0.00    +0.000 OA
ATOM     33  H   UNL     1     111.945  75.365  76.799  0.00  0.00    +0.000 HD
BRANCH  31  34
ATOM     34  C   UNL     1     113.731  76.080  75.028  0.00  0.00    +0.000 C 
BRANCH  34  35
ATOM     35  N   UNL     1     112.473  76.413  74.322  0.00  0.00    +0.000 NA
ATOM     36  H   UNL     1     111.768  76.659  75.022  0.00  0.00    +0.000 HD
ATOM     37  H   UNL     1     112.116  75.567  73.870  0.00  0.00    +0.000 HD
ENDBRANCH  34  35
BRANCH  34  38
ATOM     38  C   UNL     1     113.997  77.151  76.095  0.00  0.00    +0.000 C 
BRANCH  38  39
ATOM     39  C   UNL     1     115.421  77.051  76.647  0.00  0.00    +0.000 C 
BRANCH  39  40
ATOM     40  O   UNL     1     115.436  76.873  78.061  0.00  0.00    +0.000 OA
BRANCH  40  41
ATOM     41  C   UNL     1     116.654  76.287  78.533  0.00  0.00    +0.000 C 
BRANCH  41  42
ATOM     42  C   UNL     1     117.647  77.403  78.792  0.00  0.00    +0.000 C 
BRANCH  42  43
ATOM     43  O   UNL     1     117.059  78.573  79.343  0.00  0.00    +0.000 OA
ATOM     44  H   UNL     1     116.985  78.451  80.304  0.00  0.00    +0.000 HD
ENDBRANCH  42  43
ENDBRANCH  41  42
ENDBRANCH  40  41
ENDBRANCH  39  40
ENDBRANCH  38  39
ENDBRANCH  34  38
ENDBRANCH  31  34
ENDBRANCH  29  30
ENDBRANCH  23  24
ENDBRANCH   1  23
TORSDOF 19
ENDMDL
MODEL 3
REMARK VINA RESULT:      -6.4      3.117      9.648
REMARK  Name = 
REMARK  20 active torsions:
REMARK  status: ('A' for Active; 'I' for Inactive)
REMARK    1  A    between atoms: C_1  and  C_2
REMARK    2  A    between atoms: C_2  and  C_3
REMARK    3  A    between atoms: C_7  and  O_8
REMARK    4  A    between atoms: C_7  and  C_20
REMARK    5  A    between atoms: O_8  and  C_9
REMARK    6  A    between atoms: C_9  and  C_11
REMARK    7  A    between atoms: C_11  and  O_12
REMARK    8  A    between atoms: O_12  and  C_13
REMARK    9  A    between atoms: C_18  and  O_19
REMARK   10  A    between atoms: C_20  and  O_22
REMARK   11  A    between atoms: O_22  and  C_23
REMARK   12  A    between atoms: C_28  and  N_29
REMARK   13  A    between atoms: C_30  and  C_32
REMARK   14  A    between atoms: C_32  and  N_33
REMARK   15  A    between atoms: C_32  and  C_34
REMARK   16  A    between atoms: C_34  and  C_35
REMARK   17  A    between atoms: C_35  and  O_36
REMARK   18  A    between atoms: O_36  and  C_37
REMARK   19  A    between atoms: C_37  and  C_38
REMARK   20  A    between atoms: C_38  and  O_39
REMARK                            x       y       z     vdW  Elec       q    Type
REMARK                         _______ _______ _______ _____ _____    ______ ____
ROOT
ATOM      1  C   UNL     1     113.169  75.317  80.238  0.00  0.00    +0.000 C 
ATOM      2  O   UNL     1     112.973  76.371  79.650  0.00  0.00    +0.000 OA
ENDROOT
BRANCH   1   7
ATOM      3  C   UNL     1     112.054  74.940  82.528  0.00  0.00    +0.000 C 
ATOM      4  C   UNL     1     112.519  74.360  83.874  0.00  0.00    +0.000 C 
ATOM      5  C   UNL     1     113.768  73.541  83.554  0.00  0.00    +0.000 C 
ATOM      6  C   UNL     1     114.104  73.842  82.091  0.00  0.00    +0.000 C 
ATOM      7  C   UNL     1     113.400  75.180  81.775  0.00  0.00    +0.000 C 
BRANCH   3   9
ATOM      8  C   UNL     1     110.572  76.295  84.104  0.00  0.00    +0.000 C 
ATOM      9  C   UNL     1     111.161  76.179  82.705  0.00  0.00    +0.000 C 
ENDBRANCH   3   9
BRANCH   7  10
ATOM     10  O   UNL     1     114.096  76.217  82.492  0.00  0.00    +0.000 OA
BRANCH  10  11
ATOM     11  C   UNL     1     115.284  76.685  82.047  0.00  0.00    +0.000 C 
ATOM     12  O   UNL     1     115.443  77.563  81.205  0.00  0.00    +0.000 OA
BRANCH  11  13
ATOM     13  C   UNL     1     116.438  76.067  82.815  0.00  0.00    +0.000 C 
BRANCH  13  14
ATOM     14  O   UNL     1     116.385  76.111  84.234  0.00  0.00    +0.000 OA
BRANCH  14  15
ATOM     15  C   UNL     1     116.331  77.470  84.739  0.00  0.00    +0.000 C 
ATOM     16  C   UNL     1     117.664  77.921  85.364  0.00  0.00    +0.000 C 
ATOM     17  C   UNL     1     118.074  77.020  86.519  0.00  0.00    +0.000 C 
ATOM     18  C   UNL     1     117.013  77.036  87.607  0.00  0.00    +0.000 C 
ATOM     19  C   UNL     1     115.628  76.695  87.058  0.00  0.00    +0.000 C 
ATOM     20  C   UNL     1     115.256  77.554  85.846  0.00  0.00    +0.000 C 
BRANCH  20  21
ATOM     21  O   UNL     1     113.985  77.137  85.352  0.00  0.00    +0.000 OA
ATOM     22  H   UNL     1     113.361  77.846  85.594  0.00  0.00    +0.000 HD
ENDBRANCH  20  21
ENDBRANCH  14  15
ENDBRANCH  13  14
ENDBRANCH  11  13
ENDBRANCH  10  11
ENDBRANCH   7  10
ENDBRANCH   1   7
BRANCH   1  23
ATOM     23  O   UNL     1     113.206  74.090  79.648  0.00  0.00    +0.000 OA
BRANCH  23  24
ATOM     24  C   UNL     1     112.066  73.548  78.933  0.00  0.00    +0.000 C 
ATOM     25  C   UNL     1     111.503  72.306  79.621  0.00  0.00    +0.000 C 
ATOM     26  C   UNL     1     110.369  71.717  78.798  0.00  0.00    +0.000 C 
ATOM     27  O   UNL     1     110.850  71.386  77.496  0.00  0.00    +0.000 OA
ATOM     28  C   UNL     1     111.195  72.558  76.757  0.00  0.00    +0.000 C 
ATOM     29  C   UNL     1     112.335  73.355  77.425  0.00  0.00    +0.000 C 
BRANCH  29  30
ATOM     30  N   UNL     1     112.602  74.629  76.735  0.00  0.00    +0.000 N 
ATOM     31  C   UNL     1     113.757  74.841  76.016  0.00  0.00    +0.000 C 
ATOM     32  O   UNL     1     114.656  74.019  75.917  0.00  0.00    +0.000 OA
ATOM     33  H   UNL     1     111.773  75.170  76.489  0.00  0.00    +0.000 HD
BRANCH  31  34
ATOM     34  C   UNL     1     113.893  76.258  75.414  0.00  0.00    +0.000 C 
BRANCH  34  35
ATOM     35  N   UNL     1     115.119  76.299  74.586  0.00  0.00    +0.000 NA
ATOM     36  H   UNL     1     115.166  77.212  74.127  0.00  0.00    +0.000 HD
ATOM     37  H   UNL     1     115.024  75.623  73.824  0.00  0.00    +0.000 HD
ENDBRANCH  34  35
BRANCH  34  38
ATOM     38  C   UNL     1     112.683  76.567  74.522  0.00  0.00    +0.000 C 
BRANCH  38  39
ATOM     39  C   UNL     1     112.620  75.626  73.317  0.00  0.00    +0.000 C 
BRANCH  39  40
ATOM     40  O   UNL     1     113.269  76.176  72.173  0.00  0.00    +0.000 OA
BRANCH  40  41
ATOM     41  C   UNL     1     112.361  76.836  71.285  0.00  0.00    +0.000 C 
BRANCH  41  42
ATOM     42  C   UNL     1     111.026  76.120  71.353  0.00  0.00    +0.000 C 
BRANCH  42  43
ATOM     43  O   UNL     1     110.533  75.712  70.086  0.00  0.00    +0.000 OA
ATOM     44  H   UNL     1     110.750  76.405  69.439  0.00  0.00    +0.000 HD
ENDBRANCH  42  43
ENDBRANCH  41  42
ENDBRANCH  40  41
ENDBRANCH  39  40
ENDBRANCH  38  39
ENDBRANCH  34  38
ENDBRANCH  31  34
ENDBRANCH  29  30
ENDBRANCH  23  24
ENDBRANCH   1  23
TORSDOF 19
ENDMDL
MODEL 4
REMARK VINA RESULT:      -6.3      4.032      9.197
REMARK  Name = 
REMARK  20 active torsions:
REMARK  status: ('A' for Active; 'I' for Inactive)
REMARK    1  A    between atoms: C_1  and  C_2
REMARK    2  A    between atoms: C_2  and  C_3
REMARK    3  A    between atoms: C_7  and  O_8
REMARK    4  A    between atoms: C_7  and  C_20
REMARK    5  A    between atoms: O_8  and  C_9
REMARK    6  A    between atoms: C_9  and  C_11
REMARK    7  A    between atoms: C_11  and  O_12
REMARK    8  A    between atoms: O_12  and  C_13
REMARK    9  A    between atoms: C_18  and  O_19
REMARK   10  A    between atoms: C_20  and  O_22
REMARK   11  A    between atoms: O_22  and  C_23
REMARK   12  A    between atoms: C_28  and  N_29
REMARK   13  A    between atoms: C_30  and  C_32
REMARK   14  A    between atoms: C_32  and  N_33
REMARK   15  A    between atoms: C_32  and  C_34
REMARK   16  A    between atoms: C_34  and  C_35
REMARK   17  A    between atoms: C_35  and  O_36
REMARK   18  A    between atoms: O_36  and  C_37
REMARK   19  A    between atoms: C_37  and  C_38
REMARK   20  A    between atoms: C_38  and  O_39
REMARK                            x       y       z     vdW  Elec       q    Type
REMARK                         _______ _______ _______ _____ _____    ______ ____
ROOT
ATOM      1  C   UNL     1     114.382  75.647  77.401  0.00  0.00    +0.000 C 
ATOM      2  O   UNL     1     114.163  76.593  76.658  0.00  0.00    +0.000 OA
ENDROOT
BRANCH   1   7
ATOM      3  C   UNL     1     116.470  74.649  78.529  0.00  0.00    +0.000 C 
ATOM      4  C   UNL     1     117.499  75.166  79.549  0.00  0.00    +0.000 C 
ATOM      5  C   UNL     1     117.375  76.688  79.516  0.00  0.00    +0.000 C 
ATOM      6  C   UNL     1     116.149  76.990  78.650  0.00  0.00    +0.000 C 
ATOM      7  C   UNL     1     115.314  75.690  78.652  0.00  0.00    +0.000 C 
BRANCH   3   9
ATOM      8  C   UNL     1     117.005  72.484  79.772  0.00  0.00    +0.000 C 
ATOM      9  C   UNL     1     116.077  73.185  78.791  0.00  0.00    +0.000 C 
ENDBRANCH   3   9
BRANCH   7  10
ATOM     10  O   UNL     1     114.755  75.535  79.971  0.00  0.00    +0.000 OA
BRANCH  10  11
ATOM     11  C   UNL     1     114.069  76.545  80.551  0.00  0.00    +0.000 C 
ATOM     12  O   UNL     1     113.163  77.192  80.036  0.00  0.00    +0.000 OA
BRANCH  11  13
ATOM     13  C   UNL     1     114.477  76.720  82.004  0.00  0.00    +0.000 C 
BRANCH  13  14
ATOM     14  O   UNL     1     113.473  76.555  82.995  0.00  0.00    +0.000 OA
BRANCH  14  15
ATOM     15  C   UNL     1     112.758  75.301  82.848  0.00  0.00    +0.000 C 
ATOM     16  C   UNL     1     111.266  75.508  82.531  0.00  0.00    +0.000 C 
ATOM     17  C   UNL     1     110.566  76.309  83.618  0.00  0.00    +0.000 C 
ATOM     18  C   UNL     1     110.670  75.592  84.955  0.00  0.00    +0.000 C 
ATOM     19  C   UNL     1     112.117  75.255  85.310  0.00  0.00    +0.000 C 
ATOM     20  C   UNL     1     112.837  74.517  84.177  0.00  0.00    +0.000 C 
BRANCH  20  21
ATOM     21  O   UNL     1     114.194  74.294  84.555  0.00  0.00    +0.000 OA
ATOM     22  H   UNL     1     114.166  74.013  85.488  0.00  0.00    +0.000 HD
ENDBRANCH  20  21
ENDBRANCH  14  15
ENDBRANCH  13  14
ENDBRANCH  11  13
ENDBRANCH  10  11
ENDBRANCH   7  10
ENDBRANCH   1   7
BRANCH   1  23
ATOM     23  O   UNL     1     113.840  74.406  77.264  0.00  0.00    +0.000 OA
BRANCH  23  24
ATOM     24  C   UNL     1     112.434  74.151  77.513  0.00  0.00    +0.000 C 
ATOM     25  C   UNL     1     112.220  73.356  78.801  0.00  0.00    +0.000 C 
ATOM     26  C   UNL     1     110.746  73.034  78.982  0.00  0.00    +0.000 C 
ATOM     27  O   UNL     1     110.282  72.289  77.858  0.00  0.00    +0.000 OA
ATOM     28  C   UNL     1     110.284  73.083  76.671  0.00  0.00    +0.000 C 
ATOM     29  C   UNL     1     111.700  73.560  76.290  0.00  0.00    +0.000 C 
BRANCH  29  30
ATOM     30  N   UNL     1     111.687  74.485  75.143  0.00  0.00    +0.000 N 
ATOM     31  C   UNL     1     112.469  74.278  74.029  0.00  0.00    +0.000 C 
ATOM     32  O   UNL     1     113.250  73.346  73.912  0.00  0.00    +0.000 OA
ATOM     33  H   UNL     1     110.833  75.032  75.039  0.00  0.00    +0.000 HD
BRANCH  31  34
ATOM     34  C   UNL     1     112.371  75.385  72.955  0.00  0.00    +0.000 C 
BRANCH  34  35
ATOM     35  N   UNL     1     111.250  75.055  72.045  0.00  0.00    +0.000 NA
ATOM     36  H   UNL     1     110.832  74.175  72.358  0.00  0.00    +0.000 HD
ATOM     37  H   UNL     1     111.629  74.853  71.117  0.00  0.00    +0.000 HD
ENDBRANCH  34  35
BRANCH  34  38
ATOM     38  C   UNL     1     112.084  76.737  73.622  0.00  0.00    +0.000 C 
BRANCH  38  39
ATOM     39  C   UNL     1     112.627  77.900  72.788  0.00  0.00    +0.000 C 
BRANCH  39  40
ATOM     40  O   UNL     1     112.815  79.077  73.570  0.00  0.00    +0.000 OA
BRANCH  40  41
ATOM     41  C   UNL     1     114.190  79.462  73.669  0.00  0.00    +0.000 C 
BRANCH  41  42
ATOM     42  C   UNL     1     114.411  80.085  75.034  0.00  0.00    +0.000 C 
BRANCH  42  43
ATOM     43  O   UNL     1     114.514  81.501  75.004  0.00  0.00    +0.000 OA
ATOM     44  H   UNL     1     114.749  81.806  75.896  0.00  0.00    +0.000 HD
ENDBRANCH  42  43
ENDBRANCH  41  42
ENDBRANCH  40  41
ENDBRANCH  39  40
ENDBRANCH  38  39
ENDBRANCH  34  38
ENDBRANCH  31  34
ENDBRANCH  29  30
ENDBRANCH  23  24
ENDBRANCH   1  23
TORSDOF 19
ENDMDL
MODEL 5
REMARK VINA RESULT:      -6.3      3.502      9.244
REMARK  Name = 
REMARK  20 active torsions:
REMARK  status: ('A' for Active; 'I' for Inactive)
REMARK    1  A    between atoms: C_1  and  C_2
REMARK    2  A    between atoms: C_2  and  C_3
REMARK    3  A    between atoms: C_7  and  O_8
REMARK    4  A    between atoms: C_7  and  C_20
REMARK    5  A    between atoms: O_8  and  C_9
REMARK    6  A    between atoms: C_9  and  C_11
REMARK    7  A    between atoms: C_11  and  O_12
REMARK    8  A    between atoms: O_12  and  C_13
REMARK    9  A    between atoms: C_18  and  O_19
REMARK   10  A    between atoms: C_20  and  O_22
REMARK   11  A    between atoms: O_22  and  C_23
REMARK   12  A    between atoms: C_28  and  N_29
REMARK   13  A    between atoms: C_30  and  C_32
REMARK   14  A    between atoms: C_32  and  N_33
REMARK   15  A    between atoms: C_32  and  C_34
REMARK   16  A    between atoms: C_34  and  C_35
REMARK   17  A    between atoms: C_35  and  O_36
REMARK   18  A    between atoms: O_36  and  C_37
REMARK   19  A    between atoms: C_37  and  C_38
REMARK   20  A    between atoms: C_38  and  O_39
REMARK                            x       y       z     vdW  Elec       q    Type
REMARK                         _______ _______ _______ _____ _____    ______ ____
ROOT
ATOM      1  C   UNL     1     113.088  75.643  80.302  0.00  0.00    +0.000 C 
ATOM      2  O   UNL     1     112.883  76.749  79.820  0.00  0.00    +0.000 OA
ENDROOT
BRANCH   1   7
ATOM      3  C   UNL     1     112.024  75.081  82.578  0.00  0.00    +0.000 C 
ATOM      4  C   UNL     1     112.510  74.372  83.853  0.00  0.00    +0.000 C 
ATOM      5  C   UNL     1     113.732  73.561  83.426  0.00  0.00    +0.000 C 
ATOM      6  C   UNL     1     114.038  73.988  81.988  0.00  0.00    +0.000 C 
ATOM      7  C   UNL     1     113.355  75.362  81.813  0.00  0.00    +0.000 C 
BRANCH   3   9
ATOM      8  C   UNL     1     110.457  76.227  84.236  0.00  0.00    +0.000 C 
ATOM      9  C   UNL     1     111.163  76.317  82.891  0.00  0.00    +0.000 C 
ENDBRANCH   3   9
BRANCH   7  10
ATOM     10  O   UNL     1     114.092  76.316  82.602  0.00  0.00    +0.000 OA
BRANCH  10  11
ATOM     11  C   UNL     1     115.311  76.744  82.204  0.00  0.00    +0.000 C 
ATOM     12  O   UNL     1     115.544  77.451  81.230  0.00  0.00    +0.000 OA
BRANCH  11  13
ATOM     13  C   UNL     1     116.386  76.336  83.197  0.00  0.00    +0.000 C 
BRANCH  13  14
ATOM     14  O   UNL     1     116.921  77.346  84.041  0.00  0.00    +0.000 OA
BRANCH  14  15
ATOM     15  C   UNL     1     117.509  76.797  85.248  0.00  0.00    +0.000 C 
ATOM     16  C   UNL     1     116.447  76.367  86.277  0.00  0.00    +0.000 C 
ATOM     17  C   UNL     1     115.561  77.533  86.689  0.00  0.00    +0.000 C 
ATOM     18  C   UNL     1     116.397  78.642  87.307  0.00  0.00    +0.000 C 
ATOM     19  C   UNL     1     117.544  79.069  86.392  0.00  0.00    +0.000 C 
ATOM     20  C   UNL     1     118.384  77.879  85.920  0.00  0.00    +0.000 C 
BRANCH  20  21
ATOM     21  O   UNL     1     119.391  78.345  85.024  0.00  0.00    +0.000 OA
ATOM     22  H   UNL     1     118.968  79.042  84.490  0.00  0.00    +0.000 HD
ENDBRANCH  20  21
ENDBRANCH  14  15
ENDBRANCH  13  14
ENDBRANCH  11  13
ENDBRANCH  10  11
ENDBRANCH   7  10
ENDBRANCH   1   7
BRANCH   1  23
ATOM     23  O   UNL     1     113.105  74.477  79.599  0.00  0.00    +0.000 OA
BRANCH  23  24
ATOM     24  C   UNL     1     111.950  74.011  78.857  0.00  0.00    +0.000 C 
ATOM     25  C   UNL     1     111.113  73.025  79.669  0.00  0.00    +0.000 C 
ATOM     26  C   UNL     1     109.963  72.494  78.830  0.00  0.00    +0.000 C 
ATOM     27  O   UNL     1     110.482  71.858  77.663  0.00  0.00    +0.000 OA
ATOM     28  C   UNL     1     111.096  72.803  76.787  0.00  0.00    +0.000 C 
ATOM     29  C   UNL     1     112.303  73.507  77.441  0.00  0.00    +0.000 C 
BRANCH  29  30
ATOM     30  N   UNL     1     112.857  74.573  76.588  0.00  0.00    +0.000 N 
ATOM     31  C   UNL     1     113.763  74.309  75.586  0.00  0.00    +0.000 C 
ATOM     32  O   UNL     1     114.204  73.195  75.346  0.00  0.00    +0.000 OA
ATOM     33  H   UNL     1     112.275  75.406  76.506  0.00  0.00    +0.000 HD
BRANCH  31  34
ATOM     34  C   UNL     1     114.281  75.558  74.837  0.00  0.00    +0.000 C 
BRANCH  34  35
ATOM     35  N   UNL     1     114.095  75.341  73.384  0.00  0.00    +0.000 NA
ATOM     36  H   UNL     1     114.808  74.680  73.065  0.00  0.00    +0.000 HD
ATOM     37  H   UNL     1     114.303  76.214  72.893  0.00  0.00    +0.000 HD
ENDBRANCH  34  35
BRANCH  34  38
ATOM     38  C   UNL     1     113.475  76.793  75.260  0.00  0.00    +0.000 C 
BRANCH  38  39
ATOM     39  C   UNL     1     112.726  77.408  74.075  0.00  0.00    +0.000 C 
BRANCH  39  40
ATOM     40  O   UNL     1     113.005  78.798  73.928  0.00  0.00    +0.000 OA
BRANCH  40  41
ATOM     41  C   UNL     1     114.401  79.097  74.026  0.00  0.00    +0.000 C 
BRANCH  41  42
ATOM     42  C   UNL     1     114.549  80.502  74.576  0.00  0.00    +0.000 C 
BRANCH  42  43
ATOM     43  O   UNL     1     114.530  80.564  75.994  0.00  0.00    +0.000 OA
ATOM     44  H   UNL     1     113.686  80.195  76.303  0.00  0.00    +0.000 HD
ENDBRANCH  42  43
ENDBRANCH  41  42
ENDBRANCH  40  41
ENDBRANCH  39  40
ENDBRANCH  38  39
ENDBRANCH  34  38
ENDBRANCH  31  34
ENDBRANCH  29  30
ENDBRANCH  23  24
ENDBRANCH   1  23
TORSDOF 19
ENDMDL
MODEL 6
REMARK VINA RESULT:      -6.3      3.315      8.177
REMARK  Name = 
REMARK  20 active torsions:
REMARK  status: ('A' for Active; 'I' for Inactive)
REMARK    1  A    between atoms: C_1  and  C_2
REMARK    2  A    between atoms: C_2  and  C_3
REMARK    3  A    between atoms: C_7  and  O_8
REMARK    4  A    between atoms: C_7  and  C_20
REMARK    5  A    between atoms: O_8  and  C_9
REMARK    6  A    between atoms: C_9  and  C_11
REMARK    7  A    between atoms: C_11  and  O_12
REMARK    8  A    between atoms: O_12  and  C_13
REMARK    9  A    between atoms: C_18  and  O_19
REMARK   10  A    between atoms: C_20  and  O_22
REMARK   11  A    between atoms: O_22  and  C_23
REMARK   12  A    between atoms: C_28  and  N_29
REMARK   13  A    between atoms: C_30  and  C_32
REMARK   14  A    between atoms: C_32  and  N_33
REMARK   15  A    between atoms: C_32  and  C_34
REMARK   16  A    between atoms: C_34  and  C_35
REMARK   17  A    between atoms: C_35  and  O_36
REMARK   18  A    between atoms: O_36  and  C_37
REMARK   19  A    between atoms: C_37  and  C_38
REMARK   20  A    between atoms: C_38  and  O_39
REMARK                            x       y       z     vdW  Elec       q    Type
REMARK                         _______ _______ _______ _____ _____    ______ ____
ROOT
ATOM      1  C   UNL     1     114.706  73.337  80.094  0.00  0.00    +0.000 C 
ATOM      2  O   UNL     1     114.519  74.531  80.279  0.00  0.00    +0.000 OA
ENDROOT
BRANCH   1   7
ATOM      3  C   UNL     1     116.470  71.493  80.436  0.00  0.00    +0.000 C 
ATOM      4  C   UNL     1     117.302  71.002  81.632  0.00  0.00    +0.000 C 
ATOM      5  C   UNL     1     117.271  72.144  82.645  0.00  0.00    +0.000 C 
ATOM      6  C   UNL     1     116.260  73.158  82.103  0.00  0.00    +0.000 C 
ATOM      7  C   UNL     1     115.371  72.366  81.118  0.00  0.00    +0.000 C 
BRANCH   3   9
ATOM      8  C   UNL     1     117.043  69.342  79.185  0.00  0.00    +0.000 C 
ATOM      9  C   UNL     1     115.952  70.330  79.571  0.00  0.00    +0.000 C 
ENDBRANCH   3   9
BRANCH   7  10
ATOM     10  O   UNL     1     114.553  71.471  81.895  0.00  0.00    +0.000 OA
BRANCH  10  11
ATOM     11  C   UNL     1     113.231  71.706  82.052  0.00  0.00    +0.000 C 
ATOM     12  O   UNL     1     112.320  71.095  81.504  0.00  0.00    +0.000 OA
BRANCH  11  13
ATOM     13  C   UNL     1     112.986  72.770  83.108  0.00  0.00    +0.000 C 
BRANCH  13  14
ATOM     14  O   UNL     1     112.320  73.958  82.704  0.00  0.00    +0.000 OA
BRANCH  14  15
ATOM     15  C   UNL     1     112.863  75.138  83.350  0.00  0.00    +0.000 C 
ATOM     16  C   UNL     1     112.591  75.159  84.865  0.00  0.00    +0.000 C 
ATOM     17  C   UNL     1     111.101  75.117  85.168  0.00  0.00    +0.000 C 
ATOM     18  C   UNL     1     110.399  76.313  84.546  0.00  0.00    +0.000 C 
ATOM     19  C   UNL     1     110.693  76.432  83.051  0.00  0.00    +0.000 C 
ATOM     20  C   UNL     1     112.195  76.395  82.749  0.00  0.00    +0.000 C 
BRANCH  20  21
ATOM     21  O   UNL     1     112.387  76.446  81.337  0.00  0.00    +0.000 OA
ATOM     22  H   UNL     1     113.316  76.713  81.206  0.00  0.00    +0.000 HD
ENDBRANCH  20  21
ENDBRANCH  14  15
ENDBRANCH  13  14
ENDBRANCH  11  13
ENDBRANCH  10  11
ENDBRANCH   7  10
ENDBRANCH   1   7
BRANCH   1  23
ATOM     23  O   UNL     1     114.355  72.658  78.966  0.00  0.00    +0.000 OA
BRANCH  23  24
ATOM     24  C   UNL     1     113.032  72.773  78.383  0.00  0.00    +0.000 C 
ATOM     25  C   UNL     1     112.408  71.404  78.117  0.00  0.00    +0.000 C 
ATOM     26  C   UNL     1     111.063  71.564  77.427  0.00  0.00    +0.000 C 
ATOM     27  O   UNL     1     111.240  72.273  76.202  0.00  0.00    +0.000 OA
ATOM     28  C   UNL     1     111.632  73.625  76.437  0.00  0.00    +0.000 C 
ATOM     29  C   UNL     1     112.988  73.722  77.166  0.00  0.00    +0.000 C 
BRANCH  29  30
ATOM     30  N   UNL     1     113.330  75.110  77.525  0.00  0.00    +0.000 N 
ATOM     31  C   UNL     1     114.083  75.913  76.697  0.00  0.00    +0.000 C 
ATOM     32  O   UNL     1     114.551  75.541  75.632  0.00  0.00    +0.000 OA
ATOM     33  H   UNL     1     112.691  75.557  78.181  0.00  0.00    +0.000 HD
BRANCH  31  34
ATOM     34  C   UNL     1     114.394  77.316  77.266  0.00  0.00    +0.000 C 
BRANCH  34  35
ATOM     35  N   UNL     1     114.154  77.291  78.727  0.00  0.00    +0.000 NA
ATOM     36  H   UNL     1     114.541  76.420  79.101  0.00  0.00    +0.000 HD
ATOM     37  H   UNL     1     113.147  77.228  78.894  0.00  0.00    +0.000 HD
ENDBRANCH  34  35
BRANCH  34  38
ATOM     38  C   UNL     1     115.867  77.668  77.013  0.00  0.00    +0.000 C 
BRANCH  38  39
ATOM     39  C   UNL     1     116.003  78.869  76.076  0.00  0.00    +0.000 C 
BRANCH  39  40
ATOM     40  O   UNL     1     114.772  79.572  75.922  0.00  0.00    +0.000 OA
BRANCH  40  41
ATOM     41  C   UNL     1     114.533  79.981  74.572  0.00  0.00    +0.000 C 
BRANCH  41  42
ATOM     42  C   UNL     1     113.484  79.063  73.976  0.00  0.00    +0.000 C 
BRANCH  42  43
ATOM     43  O   UNL     1     112.656  79.693  73.010  0.00  0.00    +0.000 OA
ATOM     44  H   UNL     1     112.985  79.454  72.127  0.00  0.00    +0.000 HD
ENDBRANCH  42  43
ENDBRANCH  41  42
ENDBRANCH  40  41
ENDBRANCH  39  40
ENDBRANCH  38  39
ENDBRANCH  34  38
ENDBRANCH  31  34
ENDBRANCH  29  30
ENDBRANCH  23  24
ENDBRANCH   1  23
TORSDOF 19
ENDMDL
MODEL 7
REMARK VINA RESULT:      -6.3      2.090      8.584
REMARK  Name = 
REMARK  20 active torsions:
REMARK  status: ('A' for Active; 'I' for Inactive)
REMARK    1  A    between atoms: C_1  and  C_2
REMARK    2  A    between atoms: C_2  and  C_3
REMARK    3  A    between atoms: C_7  and  O_8
REMARK    4  A    between atoms: C_7  and  C_20
REMARK    5  A    between atoms: O_8  and  C_9
REMARK    6  A    between atoms: C_9  and  C_11
REMARK    7  A    between atoms: C_11  and  O_12
REMARK    8  A    between atoms: O_12  and  C_13
REMARK    9  A    between atoms: C_18  and  O_19
REMARK   10  A    between atoms: C_20  and  O_22
REMARK   11  A    between atoms: O_22  and  C_23
REMARK   12  A    between atoms: C_28  and  N_29
REMARK   13  A    between atoms: C_30  and  C_32
REMARK   14  A    between atoms: C_32  and  N_33
REMARK   15  A    between atoms: C_32  and  C_34
REMARK   16  A    between atoms: C_34  and  C_35
REMARK   17  A    between atoms: C_35  and  O_36
REMARK   18  A    between atoms: O_36  and  C_37
REMARK   19  A    between atoms: C_37  and  C_38
REMARK   20  A    between atoms: C_38  and  O_39
REMARK                            x       y       z     vdW  Elec       q    Type
REMARK                         _______ _______ _______ _____ _____    ______ ____
ROOT
ATOM      1  C   UNL     1     113.011  73.166  83.107  0.00  0.00    +0.000 C 
ATOM      2  O   UNL     1     112.104  72.347  83.031  0.00  0.00    +0.000 OA
ENDROOT
BRANCH   1   7
ATOM      3  C   UNL     1     112.326  75.292  81.828  0.00  0.00    +0.000 C 
ATOM      4  C   UNL     1     111.742  76.656  82.233  0.00  0.00    +0.000 C 
ATOM      5  C   UNL     1     111.145  76.446  83.623  0.00  0.00    +0.000 C 
ATOM      6  C   UNL     1     111.585  75.046  84.062  0.00  0.00    +0.000 C 
ATOM      7  C   UNL     1     112.816  74.711  83.191  0.00  0.00    +0.000 C 
BRANCH   3   9
ATOM      8  C   UNL     1     113.213  76.648  79.855  0.00  0.00    +0.000 C 
ATOM      9  C   UNL     1     113.401  75.421  80.735  0.00  0.00    +0.000 C 
ENDBRANCH   3   9
BRANCH   7  10
ATOM     10  O   UNL     1     113.901  75.549  83.633  0.00  0.00    +0.000 OA
BRANCH  10  11
ATOM     11  C   UNL     1     114.091  75.794  84.949  0.00  0.00    +0.000 C 
ATOM     12  O   UNL     1     114.120  74.954  85.842  0.00  0.00    +0.000 OA
BRANCH  11  13
ATOM     13  C   UNL     1     114.392  77.263  85.194  0.00  0.00    +0.000 C 
BRANCH  13  14
ATOM     14  O   UNL     1     115.273  77.586  86.261  0.00  0.00    +0.000 OA
BRANCH  14  15
ATOM     15  C   UNL     1     116.639  77.183  85.986  0.00  0.00    +0.000 C 
ATOM     16  C   UNL     1     117.193  76.217  87.049  0.00  0.00    +0.000 C 
ATOM     17  C   UNL     1     117.170  76.837  88.437  0.00  0.00    +0.000 C 
ATOM     18  C   UNL     1     118.010  78.104  88.466  0.00  0.00    +0.000 C 
ATOM     19  C   UNL     1     117.594  79.089  87.374  0.00  0.00    +0.000 C 
ATOM     20  C   UNL     1     117.545  78.434  85.990  0.00  0.00    +0.000 C 
BRANCH  20  21
ATOM     21  O   UNL     1     117.089  79.393  85.037  0.00  0.00    +0.000 OA
ATOM     22  H   UNL     1     116.334  79.846  85.457  0.00  0.00    +0.000 HD
ENDBRANCH  20  21
ENDBRANCH  14  15
ENDBRANCH  13  14
ENDBRANCH  11  13
ENDBRANCH  10  11
ENDBRANCH   7  10
ENDBRANCH   1   7
BRANCH   1  23
ATOM     23  O   UNL     1     114.337  72.859  83.140  0.00  0.00    +0.000 OA
BRANCH  23  24
ATOM     24  C   UNL     1     114.811  71.491  83.041  0.00  0.00    +0.000 C 
ATOM     25  C   UNL     1     116.000  71.234  83.965  0.00  0.00    +0.000 C 
ATOM     26  C   UNL     1     116.523  69.821  83.770  0.00  0.00    +0.000 C 
ATOM     27  O   UNL     1     116.907  69.641  82.408  0.00  0.00    +0.000 OA
ATOM     28  C   UNL     1     115.773  69.677  81.540  0.00  0.00    +0.000 C 
ATOM     29  C   UNL     1     115.047  71.037  81.584  0.00  0.00    +0.000 C 
BRANCH  29  30
ATOM     30  N   UNL     1     113.805  71.031  80.791  0.00  0.00    +0.000 N 
ATOM     31  C   UNL     1     113.695  71.718  79.603  0.00  0.00    +0.000 C 
ATOM     32  O   UNL     1     114.589  72.405  79.131  0.00  0.00    +0.000 OA
ATOM     33  H   UNL     1     113.200  70.223  80.940  0.00  0.00    +0.000 HD
BRANCH  31  34
ATOM     34  C   UNL     1     112.300  71.649  78.943  0.00  0.00    +0.000 C 
BRANCH  34  35
ATOM     35  N   UNL     1     111.280  71.558  80.013  0.00  0.00    +0.000 NA
ATOM     36  H   UNL     1     111.656  70.972  80.763  0.00  0.00    +0.000 HD
ATOM     37  H   UNL     1     110.472  71.044  79.653  0.00  0.00    +0.000 HD
ENDBRANCH  34  35
BRANCH  34  38
ATOM     38  C   UNL     1     112.044  72.922  78.124  0.00  0.00    +0.000 C 
BRANCH  38  39
ATOM     39  C   UNL     1     110.998  72.686  77.033  0.00  0.00    +0.000 C 
BRANCH  39  40
ATOM     40  O   UNL     1     110.937  73.769  76.107  0.00  0.00    +0.000 OA
BRANCH  40  41
ATOM     41  C   UNL     1     112.208  74.072  75.525  0.00  0.00    +0.000 C 
BRANCH  41  42
ATOM     42  C   UNL     1     112.046  75.292  74.640  0.00  0.00    +0.000 C 
BRANCH  42  43
ATOM     43  O   UNL     1     110.702  75.547  74.261  0.00  0.00    +0.000 OA
ATOM     44  H   UNL     1     110.124  75.272  74.992  0.00  0.00    +0.000 HD
ENDBRANCH  42  43
ENDBRANCH  41  42
ENDBRANCH  40  41
ENDBRANCH  39  40
ENDBRANCH  38  39
ENDBRANCH  34  38
ENDBRANCH  31  34
ENDBRANCH  29  30
ENDBRANCH  23  24
ENDBRANCH   1  23
TORSDOF 19
ENDMDL
MODEL 8
REMARK VINA RESULT:      -6.1      2.416      3.773
REMARK  Name = 
REMARK  20 active torsions:
REMARK  status: ('A' for Active; 'I' for Inactive)
REMARK    1  A    between atoms: C_1  and  C_2
REMARK    2  A    between atoms: C_2  and  C_3
REMARK    3  A    between atoms: C_7  and  O_8
REMARK    4  A    between atoms: C_7  and  C_20
REMARK    5  A    between atoms: O_8  and  C_9
REMARK    6  A    between atoms: C_9  and  C_11
REMARK    7  A    between atoms: C_11  and  O_12
REMARK    8  A    between atoms: O_12  and  C_13
REMARK    9  A    between atoms: C_18  and  O_19
REMARK   10  A    between atoms: C_20  and  O_22
REMARK   11  A    between atoms: O_22  and  C_23
REMARK   12  A    between atoms: C_28  and  N_29
REMARK   13  A    between atoms: C_30  and  C_32
REMARK   14  A    between atoms: C_32  and  N_33
REMARK   15  A    between atoms: C_32  and  C_34
REMARK   16  A    between atoms: C_34  and  C_35
REMARK   17  A    between atoms: C_35  and  O_36
REMARK   18  A    between atoms: O_36  and  C_37
REMARK   19  A    between atoms: C_37  and  C_38
REMARK   20  A    between atoms: C_38  and  O_39
REMARK                            x       y       z     vdW  Elec       q    Type
REMARK                         _______ _______ _______ _____ _____    ______ ____
ROOT
ATOM      1  C   UNL     1     114.969  76.487  82.360  0.00  0.00    +0.000 C 
ATOM      2  O   UNL     1     115.361  77.632  82.545  0.00  0.00    +0.000 OA
ENDROOT
BRANCH   1   7
ATOM      3  C   UNL     1     113.434  74.663  83.330  0.00  0.00    +0.000 C 
ATOM      4  C   UNL     1     111.975  74.623  83.815  0.00  0.00    +0.000 C 
ATOM      5  C   UNL     1     111.595  76.078  84.079  0.00  0.00    +0.000 C 
ATOM      6  C   UNL     1     112.756  76.920  83.543  0.00  0.00    +0.000 C 
ATOM      7  C   UNL     1     113.496  76.007  82.540  0.00  0.00    +0.000 C 
BRANCH   3   9
ATOM      8  C   UNL     1     114.603  72.394  83.354  0.00  0.00    +0.000 C 
ATOM      9  C   UNL     1     113.816  73.404  82.532  0.00  0.00    +0.000 C 
ENDBRANCH   3   9
BRANCH   7  10
ATOM     10  O   UNL     1     112.645  75.850  81.388  0.00  0.00    +0.000 OA
BRANCH  10  11
ATOM     11  C   UNL     1     113.015  76.345  80.186  0.00  0.00    +0.000 C 
ATOM     12  O   UNL     1     113.048  77.531  79.873  0.00  0.00    +0.000 OA
BRANCH  11  13
ATOM     13  C   UNL     1     113.514  75.242  79.269  0.00  0.00    +0.000 C 
BRANCH  13  14
ATOM     14  O   UNL     1     112.544  74.401  78.660  0.00  0.00    +0.000 OA
BRANCH  14  15
ATOM     15  C   UNL     1     112.499  73.085  79.269  0.00  0.00    +0.000 C 
ATOM     16  C   UNL     1     112.815  71.961  78.265  0.00  0.00    +0.000 C 
ATOM     17  C   UNL     1     111.838  71.959  77.099  0.00  0.00    +0.000 C 
ATOM     18  C   UNL     1     110.416  71.761  77.598  0.00  0.00    +0.000 C 
ATOM     19  C   UNL     1     110.044  72.777  78.677  0.00  0.00    +0.000 C 
ATOM     20  C   UNL     1     111.075  72.827  79.809  0.00  0.00    +0.000 C 
BRANCH  20  21
ATOM     21  O   UNL     1     110.695  73.838  80.741  0.00  0.00    +0.000 OA
ATOM     22  H   UNL     1     110.538  74.641  80.211  0.00  0.00    +0.000 HD
ENDBRANCH  20  21
ENDBRANCH  14  15
ENDBRANCH  13  14
ENDBRANCH  11  13
ENDBRANCH  10  11
ENDBRANCH   7  10
ENDBRANCH   1   7
BRANCH   1  23
ATOM     23  O   UNL     1     115.754  75.450  81.956  0.00  0.00    +0.000 OA
BRANCH  23  24
ATOM     24  C   UNL     1     117.199  75.494  82.064  0.00  0.00    +0.000 C 
ATOM     25  C   UNL     1     117.878  74.769  80.903  0.00  0.00    +0.000 C 
ATOM     26  C   UNL     1     119.385  74.761  81.096  0.00  0.00    +0.000 C 
ATOM     27  O   UNL     1     119.701  74.122  82.331  0.00  0.00    +0.000 OA
ATOM     28  C   UNL     1     119.249  74.891  83.445  0.00  0.00    +0.000 C 
ATOM     29  C   UNL     1     117.716  75.062  83.454  0.00  0.00    +0.000 C 
BRANCH  29  30
ATOM     30  N   UNL     1     117.260  75.963  84.526  0.00  0.00    +0.000 N 
ATOM     31  C   UNL     1     116.434  75.532  85.540  0.00  0.00    +0.000 C 
ATOM     32  O   UNL     1     115.989  74.397  85.616  0.00  0.00    +0.000 OA
ATOM     33  H   UNL     1     117.866  76.764  84.704  0.00  0.00    +0.000 HD
BRANCH  31  34
ATOM     34  C   UNL     1     116.010  76.631  86.540  0.00  0.00    +0.000 C 
BRANCH  34  35
ATOM     35  N   UNL     1     114.812  76.161  87.271  0.00  0.00    +0.000 NA
ATOM     36  H   UNL     1     114.745  76.685  88.147  0.00  0.00    +0.000 HD
ATOM     37  H   UNL     1     114.959  75.189  87.553  0.00  0.00    +0.000 HD
ENDBRANCH  34  35
BRANCH  34  38
ATOM     38  C   UNL     1     117.138  76.883  87.550  0.00  0.00    +0.000 C 
BRANCH  38  39
ATOM     39  C   UNL     1     116.652  76.705  88.990  0.00  0.00    +0.000 C 
BRANCH  39  40
ATOM     40  O   UNL     1     115.930  77.843  89.456  0.00  0.00    +0.000 OA
BRANCH  40  41
ATOM     41  C   UNL     1     116.704  79.046  89.410  0.00  0.00    +0.000 C 
BRANCH  41  42
ATOM     42  C   UNL     1     118.026  78.787  90.106  0.00  0.00    +0.000 C 
BRANCH  42  43
ATOM     43  O   UNL     1     119.158  79.159  89.334  0.00  0.00    +0.000 OA
ATOM     44  H   UNL     1     118.983  80.030  88.940  0.00  0.00    +0.000 HD
ENDBRANCH  42  43
ENDBRANCH  41  42
ENDBRANCH  40  41
ENDBRANCH  39  40
ENDBRANCH  38  39
ENDBRANCH  34  38
ENDBRANCH  31  34
ENDBRANCH  29  30
ENDBRANCH  23  24
ENDBRANCH   1  23
TORSDOF 19
ENDMDL
MODEL 9
REMARK VINA RESULT:      -6.1      3.991      8.272
REMARK  Name = 
REMARK  20 active torsions:
REMARK  status: ('A' for Active; 'I' for Inactive)
REMARK    1  A    between atoms: C_1  and  C_2
REMARK    2  A    between atoms: C_2  and  C_3
REMARK    3  A    between atoms: C_7  and  O_8
REMARK    4  A    between atoms: C_7  and  C_20
REMARK    5  A    between atoms: O_8  and  C_9
REMARK    6  A    between atoms: C_9  and  C_11
REMARK    7  A    between atoms: C_11  and  O_12
REMARK    8  A    between atoms: O_12  and  C_13
REMARK    9  A    between atoms: C_18  and  O_19
REMARK   10  A    between atoms: C_20  and  O_22
REMARK   11  A    between atoms: O_22  and  C_23
REMARK   12  A    between atoms: C_28  and  N_29
REMARK   13  A    between atoms: C_30  and  C_32
REMARK   14  A    between atoms: C_32  and  N_33
REMARK   15  A    between atoms: C_32  and  C_34
REMARK   16  A    between atoms: C_34  and  C_35
REMARK   17  A    between atoms: C_35  and  O_36
REMARK   18  A    between atoms: O_36  and  C_37
REMARK   19  A    between atoms: C_37  and  C_38
REMARK   20  A    between atoms: C_38  and  O_39
REMARK                            x       y       z     vdW  Elec       q    Type
REMARK                         _______ _______ _______ _____ _____    ______ ____
ROOT
ATOM      1  C   UNL     1     113.089  75.471  80.354  0.00  0.00    +0.000 C 
ATOM      2  O   UNL     1     112.956  76.627  79.978  0.00  0.00    +0.000 OA
ENDROOT
BRANCH   1   7
ATOM      3  C   UNL     1     111.897  74.873  82.555  0.00  0.00    +0.000 C 
ATOM      4  C   UNL     1     112.246  73.997  83.771  0.00  0.00    +0.000 C 
ATOM      5  C   UNL     1     113.355  73.063  83.294  0.00  0.00    +0.000 C 
ATOM      6  C   UNL     1     113.755  73.562  81.902  0.00  0.00    +0.000 C 
ATOM      7  C   UNL     1     113.274  75.029  81.839  0.00  0.00    +0.000 C 
BRANCH   3   9
ATOM      8  C   UNL     1     110.700  76.173  84.398  0.00  0.00    +0.000 C 
ATOM      9  C   UNL     1     111.206  76.186  82.963  0.00  0.00    +0.000 C 
ENDBRANCH   3   9
BRANCH   7  10
ATOM     10  O   UNL     1     114.114  75.800  82.719  0.00  0.00    +0.000 OA
BRANCH  10  11
ATOM     11  C   UNL     1     115.062  76.624  82.220  0.00  0.00    +0.000 C 
ATOM     12  O   UNL     1     115.052  77.849  82.272  0.00  0.00    +0.000 OA
BRANCH  11  13
ATOM     13  C   UNL     1     116.239  75.836  81.672  0.00  0.00    +0.000 C 
BRANCH  13  14
ATOM     14  O   UNL     1     117.078  76.478  80.722  0.00  0.00    +0.000 OA
BRANCH  14  15
ATOM     15  C   UNL     1     116.499  76.482  79.392  0.00  0.00    +0.000 C 
ATOM     16  C   UNL     1     116.626  75.118  78.690  0.00  0.00    +0.000 C 
ATOM     17  C   UNL     1     118.079  74.690  78.554  0.00  0.00    +0.000 C 
ATOM     18  C   UNL     1     118.860  75.713  77.745  0.00  0.00    +0.000 C 
ATOM     19  C   UNL     1     118.712  77.123  78.314  0.00  0.00    +0.000 C 
ATOM     20  C   UNL     1     117.246  77.516  78.520  0.00  0.00    +0.000 C 
BRANCH  20  21
ATOM     21  O   UNL     1     117.189  78.813  79.110  0.00  0.00    +0.000 OA
ATOM     22  H   UNL     1     118.076  79.199  78.987  0.00  0.00    +0.000 HD
ENDBRANCH  20  21
ENDBRANCH  14  15
ENDBRANCH  13  14
ENDBRANCH  11  13
ENDBRANCH  10  11
ENDBRANCH   7  10
ENDBRANCH   1   7
BRANCH   1  23
ATOM     23  O   UNL     1     113.087  74.381  79.538  0.00  0.00    +0.000 OA
BRANCH  23  24
ATOM     24  C   UNL     1     111.917  73.999  78.770  0.00  0.00    +0.000 C 
ATOM     25  C   UNL     1     110.966  73.121  79.582  0.00  0.00    +0.000 C 
ATOM     26  C   UNL     1     109.799  72.671  78.720  0.00  0.00    +0.000 C 
ATOM     27  O   UNL     1     110.294  71.952  77.591  0.00  0.00    +0.000 OA
ATOM     28  C   UNL     1     111.021  72.807  76.709  0.00  0.00    +0.000 C 
ATOM     29  C   UNL     1     112.267  73.417  77.383  0.00  0.00    +0.000 C 
BRANCH  29  30
ATOM     30  N   UNL     1     112.944  74.400  76.518  0.00  0.00    +0.000 N 
ATOM     31  C   UNL     1     114.210  74.185  76.023  0.00  0.00    +0.000 C 
ATOM     32  O   UNL     1     114.882  73.197  76.281  0.00  0.00    +0.000 OA
ATOM     33  H   UNL     1     112.322  75.022  76.002  0.00  0.00    +0.000 HD
BRANCH  31  34
ATOM     34  C   UNL     1     114.784  75.351  75.186  0.00  0.00    +0.000 C 
BRANCH  34  35
ATOM     35  N   UNL     1     114.070  75.391  73.890  0.00  0.00    +0.000 NA
ATOM     36  H   UNL     1     113.635  74.478  73.736  0.00  0.00    +0.000 HD
ATOM     37  H   UNL     1     114.758  75.489  73.139  0.00  0.00    +0.000 HD
ENDBRANCH  34  35
BRANCH  34  38
ATOM     38  C   UNL     1     114.556  76.681  75.917  0.00  0.00    +0.000 C 
BRANCH  38  39
ATOM     39  C   UNL     1     113.673  77.627  75.100  0.00  0.00    +0.000 C 
BRANCH  39  40
ATOM     40  O   UNL     1     114.381  78.214  74.011  0.00  0.00    +0.000 OA
BRANCH  40  41
ATOM     41  C   UNL     1     113.840  79.478  73.616  0.00  0.00    +0.000 C 
BRANCH  41  42
ATOM     42  C   UNL     1     112.939  79.255  72.417  0.00  0.00    +0.000 C 
BRANCH  42  43
ATOM     43  O   UNL     1     112.083  80.352  72.136  0.00  0.00    +0.000 OA
ATOM     44  H   UNL     1     111.434  80.422  72.856  0.00  0.00    +0.000 HD
ENDBRANCH  42  43
ENDBRANCH  41  42
ENDBRANCH  40  41
ENDBRANCH  39  40
ENDBRANCH  38  39
ENDBRANCH  34  38
ENDBRANCH  31  34
ENDBRANCH  29  30
ENDBRANCH  23  24
ENDBRANCH   1  23
TORSDOF 19
ENDMDL
