MODEL 1
REMARK VINA RESULT:      -7.0      0.000      0.000
REMARK  Name = 
REMARK  8 active torsions:
REMARK  status: ('A' for Active; 'I' for Inactive)
REMARK    1  A    between atoms: C_1  and  C_2
REMARK    2  A    between atoms: C_3  and  O_4
REMARK    3  A    between atoms: C_5  and  O_6
REMARK    4  A    between atoms: C_5  and  C_15
REMARK    5  A    between atoms: O_6  and  C_7
REMARK    6  A    between atoms: C_7  and  C_9
REMARK    7  A    between atoms: C_11  and  O_12
REMARK    8  A    between atoms: C_13  and  N_14
REMARK                            x       y       z     vdW  Elec       q    Type
REMARK                         _______ _______ _______ _____ _____    ______ ____
ROOT
ATOM      1  C   UNL     1     116.669  76.931  80.189  0.00  0.00    +0.000 C 
ATOM      2  C   UNL     1     115.230  76.487  80.244  0.00  0.00    +0.000 C 
ATOM      3  C   UNL     1     114.696  75.381  80.767  0.00  0.00    +0.000 C 
ATOM      4  C   UNL     1     113.119  75.437  80.669  0.00  0.00    +0.000 C 
ATOM      5  C   UNL     1     113.085  76.960  80.259  0.00  0.00    +0.000 C 
ATOM      6  O   UNL     1     114.339  77.295  79.610  0.00  0.00    +0.000 OA
ENDROOT
BRANCH   4   7
ATOM      7  C   UNL     1     112.479  74.438  79.497  0.00  0.00    +0.000 C 
ATOM      8  C   UNL     1     112.817  74.323  78.168  0.00  0.00    +0.000 C 
ATOM      9  C   UNL     1     112.231  73.446  76.973  0.00  0.00    +0.000 C 
ATOM     10  C   UNL     1     112.700  71.940  76.771  0.00  0.00    +0.000 C 
ATOM     11  C   UNL     1     111.630  71.270  77.615  0.00  0.00    +0.000 C 
ATOM     12  C   UNL     1     111.789  71.438  78.935  0.00  0.00    +0.000 C 
ATOM     13  C   UNL     1     110.765  72.326  79.573  0.00  0.00    +0.000 C 
ATOM     14  C   UNL     1     111.440  73.548  80.185  0.00  0.00    +0.000 C 
ENDBRANCH   4   7
BRANCH   3  15
ATOM     15  O   UNL     1     115.310  74.388  81.441  0.00  0.00    +0.000 OA
ATOM     16  H   UNL     1     115.537  73.690  80.790  0.00  0.00    +0.000 HD
ENDBRANCH   3  15
BRANCH   4  17
ATOM     17  O   UNL     1     112.642  75.071  82.001  0.00  0.00    +0.000 OA
BRANCH  17  18
ATOM     18  C   UNL     1     111.951  75.958  82.782  0.00  0.00    +0.000 C 
ATOM     19  O   UNL     1     110.752  76.234  82.529  0.00  0.00    +0.000 OA
BRANCH  18  20
ATOM     20  C   UNL     1     112.714  76.487  83.999  0.00  0.00    +0.000 C 
ATOM     21  C   UNL     1     114.183  76.954  83.717  0.00  0.00    +0.000 C 
ATOM     22  C   UNL     1     114.580  76.410  85.105  0.00  0.00    +0.000 C 
ATOM     23  C   UNL     1     113.350  75.458  84.987  0.00  0.00    +0.000 C 
BRANCH  23  24
ATOM     24  N   UNL     1     112.633  75.446  86.269  0.00  0.00    +0.000 NA
ATOM     25  H   UNL     1     111.776  74.890  86.249  0.00  0.00    +0.000 HD
ATOM     26  H   UNL     1     112.283  76.376  86.520  0.00  0.00    +0.000 HD
ENDBRANCH  23  24
BRANCH  22  27
ATOM     27  O   UNL     1     114.586  77.372  86.190  0.00  0.00    +0.000 OA
ATOM     28  H   UNL     1     114.755  76.854  86.996  0.00  0.00    +0.000 HD
ENDBRANCH  22  27
ENDBRANCH  18  20
ENDBRANCH  17  18
ENDBRANCH   4  17
TORSDOF 7
ENDMDL
MODEL 2
REMARK VINA RESULT:      -6.9      3.520      7.049
REMARK  Name = 
REMARK  8 active torsions:
REMARK  status: ('A' for Active; 'I' for Inactive)
REMARK    1  A    between atoms: C_1  and  C_2
REMARK    2  A    between atoms: C_3  and  O_4
REMARK    3  A    between atoms: C_5  and  O_6
REMARK    4  A    between atoms: C_5  and  C_15
REMARK    5  A    between atoms: O_6  and  C_7
REMARK    6  A    between atoms: C_7  and  C_9
REMARK    7  A    between atoms: C_11  and  O_12
REMARK    8  A    between atoms: C_13  and  N_14
REMARK                            x       y       z     vdW  Elec       q    Type
REMARK                         _______ _______ _______ _____ _____    ______ ____
ROOT
ATOM      1  C   UNL     1     115.174  70.550  80.098  0.00  0.00    +0.000 C 
ATOM      2  C   UNL     1     113.975  71.433  80.331  0.00  0.00    +0.000 C 
ATOM      3  C   UNL     1     113.752  72.692  79.946  0.00  0.00    +0.000 C 
ATOM      4  C   UNL     1     112.288  73.134  80.345  0.00  0.00    +0.000 C 
ATOM      5  C   UNL     1     111.826  71.672  80.720  0.00  0.00    +0.000 C 
ATOM      6  O   UNL     1     112.993  70.901  81.107  0.00  0.00    +0.000 OA
ENDROOT
BRANCH   4   7
ATOM      7  C   UNL     1     112.228  74.183  81.640  0.00  0.00    +0.000 C 
ATOM      8  C   UNL     1     112.174  73.904  82.987  0.00  0.00    +0.000 C 
ATOM      9  C   UNL     1     112.059  74.828  84.281  0.00  0.00    +0.000 C 
ATOM     10  C   UNL     1     113.357  75.493  84.916  0.00  0.00    +0.000 C 
ATOM     11  C   UNL     1     113.327  76.798  84.141  0.00  0.00    +0.000 C 
ATOM     12  C   UNL     1     113.676  76.678  82.852  0.00  0.00    +0.000 C 
ATOM     13  C   UNL     1     112.549  76.873  81.885  0.00  0.00    +0.000 C 
ATOM     14  C   UNL     1     112.328  75.601  81.074  0.00  0.00    +0.000 C 
ENDBRANCH   4   7
BRANCH   3  15
ATOM     15  O   UNL     1     114.531  73.490  79.189  0.00  0.00    +0.000 OA
ATOM     16  H   UNL     1     114.077  73.608  78.327  0.00  0.00    +0.000 HD
ENDBRANCH   3  15
BRANCH   4  17
ATOM     17  O   UNL     1     111.733  73.744  79.139  0.00  0.00    +0.000 OA
BRANCH  17  18
ATOM     18  C   UNL     1     110.711  73.154  78.444  0.00  0.00    +0.000 C 
ATOM     19  O   UNL     1     109.559  73.081  78.940  0.00  0.00    +0.000 OA
BRANCH  18  20
ATOM     20  C   UNL     1     111.065  72.698  77.026  0.00  0.00    +0.000 C 
ATOM     21  C   UNL     1     112.034  71.471  76.940  0.00  0.00    +0.000 C 
ATOM     22  C   UNL     1     112.672  72.112  75.690  0.00  0.00    +0.000 C 
ATOM     23  C   UNL     1     112.166  73.480  76.243  0.00  0.00    +0.000 C 
BRANCH  23  24
ATOM     24  N   UNL     1     111.580  74.252  75.138  0.00  0.00    +0.000 NA
ATOM     25  H   UNL     1     110.587  74.455  75.268  0.00  0.00    +0.000 HD
ATOM     26  H   UNL     1     111.581  73.723  74.260  0.00  0.00    +0.000 HD
ENDBRANCH  23  24
BRANCH  22  27
ATOM     27  O   UNL     1     112.154  71.670  74.410  0.00  0.00    +0.000 OA
ATOM     28  H   UNL     1     112.922  71.639  73.815  0.00  0.00    +0.000 HD
ENDBRANCH  22  27
ENDBRANCH  18  20
ENDBRANCH  17  18
ENDBRANCH   4  17
TORSDOF 7
ENDMDL
MODEL 3
REMARK VINA RESULT:      -6.9      2.152      3.044
REMARK  Name = 
REMARK  8 active torsions:
REMARK  status: ('A' for Active; 'I' for Inactive)
REMARK    1  A    between atoms: C_1  and  C_2
REMARK    2  A    between atoms: C_3  and  O_4
REMARK    3  A    between atoms: C_5  and  O_6
REMARK    4  A    between atoms: C_5  and  C_15
REMARK    5  A    between atoms: O_6  and  C_7
REMARK    6  A    between atoms: C_7  and  C_9
REMARK    7  A    between atoms: C_11  and  O_12
REMARK    8  A    between atoms: C_13  and  N_14
REMARK                            x       y       z     vdW  Elec       q    Type
REMARK                         _______ _______ _______ _____ _____    ______ ____
ROOT
ATOM      1  C   UNL     1     115.014  70.642  82.296  0.00  0.00    +0.000 C 
ATOM      2  C   UNL     1     114.383  71.832  81.621  0.00  0.00    +0.000 C 
ATOM      3  C   UNL     1     113.096  72.095  81.378  0.00  0.00    +0.000 C 
ATOM      4  C   UNL     1     112.944  73.533  80.741  0.00  0.00    +0.000 C 
ATOM      5  C   UNL     1     114.434  73.952  81.046  0.00  0.00    +0.000 C 
ATOM      6  O   UNL     1     115.248  72.753  81.117  0.00  0.00    +0.000 OA
ENDROOT
BRANCH   4   7
ATOM      7  C   UNL     1     112.598  73.517  79.110  0.00  0.00    +0.000 C 
ATOM      8  C   UNL     1     113.324  74.030  78.059  0.00  0.00    +0.000 C 
ATOM      9  C   UNL     1     113.050  74.110  76.490  0.00  0.00    +0.000 C 
ATOM     10  C   UNL     1     113.385  72.873  75.548  0.00  0.00    +0.000 C 
ATOM     11  C   UNL     1     112.035  72.182  75.617  0.00  0.00    +0.000 C 
ATOM     12  C   UNL     1     111.786  71.582  76.789  0.00  0.00    +0.000 C 
ATOM     13  C   UNL     1     110.720  72.243  77.609  0.00  0.00    +0.000 C 
ATOM     14  C   UNL     1     111.301  72.723  78.934  0.00  0.00    +0.000 C 
ENDBRANCH   4   7
BRANCH   3  15
ATOM     15  O   UNL     1     112.010  71.380  81.733  0.00  0.00    +0.000 OA
ATOM     16  H   UNL     1     111.641  71.792  82.544  0.00  0.00    +0.000 HD
ENDBRANCH   3  15
BRANCH   4  17
ATOM     17  O   UNL     1     111.877  74.177  81.506  0.00  0.00    +0.000 OA
BRANCH  17  18
ATOM     18  C   UNL     1     112.014  75.449  81.994  0.00  0.00    +0.000 C 
ATOM     19  O   UNL     1     112.013  76.436  81.216  0.00  0.00    +0.000 OA
BRANCH  18  20
ATOM     20  C   UNL     1     112.069  75.561  83.519  0.00  0.00    +0.000 C 
ATOM     21  C   UNL     1     112.457  74.243  84.272  0.00  0.00    +0.000 C 
ATOM     22  C   UNL     1     111.479  74.644  85.396  0.00  0.00    +0.000 C 
ATOM     23  C   UNL     1     110.732  75.493  84.322  0.00  0.00    +0.000 C 
BRANCH  23  24
ATOM     24  N   UNL     1     110.396  76.802  84.899  0.00  0.00    +0.000 NA
ATOM     25  H   UNL     1     111.207  77.413  85.016  0.00  0.00    +0.000 HD
ATOM     26  H   UNL     1     110.047  76.718  85.859  0.00  0.00    +0.000 HD
ENDBRANCH  23  24
BRANCH  22  27
ATOM     27  O   UNL     1     112.057  75.345  86.526  0.00  0.00    +0.000 OA
ATOM     28  H   UNL     1     112.814  75.838  86.166  0.00  0.00    +0.000 HD
ENDBRANCH  22  27
ENDBRANCH  18  20
ENDBRANCH  17  18
ENDBRANCH   4  17
TORSDOF 7
ENDMDL
MODEL 4
REMARK VINA RESULT:      -6.7      2.093      2.846
REMARK  Name = 
REMARK  8 active torsions:
REMARK  status: ('A' for Active; 'I' for Inactive)
REMARK    1  A    between atoms: C_1  and  C_2
REMARK    2  A    between atoms: C_3  and  O_4
REMARK    3  A    between atoms: C_5  and  O_6
REMARK    4  A    between atoms: C_5  and  C_15
REMARK    5  A    between atoms: O_6  and  C_7
REMARK    6  A    between atoms: C_7  and  C_9
REMARK    7  A    between atoms: C_11  and  O_12
REMARK    8  A    between atoms: C_13  and  N_14
REMARK                            x       y       z     vdW  Elec       q    Type
REMARK                         _______ _______ _______ _____ _____    ______ ____
ROOT
ATOM      1  C   UNL     1     117.438  71.839  80.656  0.00  0.00    +0.000 C 
ATOM      2  C   UNL     1     116.109  72.543  80.751  0.00  0.00    +0.000 C 
ATOM      3  C   UNL     1     114.884  72.039  80.919  0.00  0.00    +0.000 C 
ATOM      4  C   UNL     1     113.829  73.207  81.066  0.00  0.00    +0.000 C 
ATOM      5  C   UNL     1     114.924  74.331  81.228  0.00  0.00    +0.000 C 
ATOM      6  O   UNL     1     116.141  73.891  80.571  0.00  0.00    +0.000 OA
ENDROOT
BRANCH   4   7
ATOM      7  C   UNL     1     112.871  73.426  79.719  0.00  0.00    +0.000 C 
ATOM      8  C   UNL     1     113.234  73.769  78.436  0.00  0.00    +0.000 C 
ATOM      9  C   UNL     1     112.394  74.053  77.112  0.00  0.00    +0.000 C 
ATOM     10  C   UNL     1     111.915  72.851  76.187  0.00  0.00    +0.000 C 
ATOM     11  C   UNL     1     110.565  72.609  76.836  0.00  0.00    +0.000 C 
ATOM     12  C   UNL     1     110.632  72.025  78.041  0.00  0.00    +0.000 C 
ATOM     13  C   UNL     1     110.253  72.918  79.183  0.00  0.00    +0.000 C 
ATOM     14  C   UNL     1     111.435  73.089  80.129  0.00  0.00    +0.000 C 
ENDBRANCH   4   7
BRANCH   3  15
ATOM     15  O   UNL     1     114.522  70.755  81.109  0.00  0.00    +0.000 OA
ATOM     16  H   UNL     1     114.838  70.491  82.000  0.00  0.00    +0.000 HD
ENDBRANCH   3  15
BRANCH   4  17
ATOM     17  O   UNL     1     113.029  72.851  82.237  0.00  0.00    +0.000 OA
BRANCH  17  18
ATOM     18  C   UNL     1     113.301  73.372  83.474  0.00  0.00    +0.000 C 
ATOM     19  O   UNL     1     114.377  73.096  84.062  0.00  0.00    +0.000 OA
BRANCH  18  20
ATOM     20  C   UNL     1     112.260  74.358  84.010  0.00  0.00    +0.000 C 
ATOM     21  C   UNL     1     111.800  75.461  82.997  0.00  0.00    +0.000 C 
ATOM     22  C   UNL     1     111.706  76.450  84.178  0.00  0.00    +0.000 C 
ATOM     23  C   UNL     1     112.744  75.541  84.906  0.00  0.00    +0.000 C 
BRANCH  23  24
ATOM     24  N   UNL     1     112.318  75.356  86.300  0.00  0.00    +0.000 NA
ATOM     25  H   UNL     1     113.086  75.121  86.931  0.00  0.00    +0.000 HD
ATOM     26  H   UNL     1     111.696  74.548  86.405  0.00  0.00    +0.000 HD
ENDBRANCH  23  24
BRANCH  22  27
ATOM     27  O   UNL     1     110.398  76.598  84.784  0.00  0.00    +0.000 OA
ATOM     28  H   UNL     1     109.775  76.182  84.164  0.00  0.00    +0.000 HD
ENDBRANCH  22  27
ENDBRANCH  18  20
ENDBRANCH  17  18
ENDBRANCH   4  17
TORSDOF 7
ENDMDL
MODEL 5
REMARK VINA RESULT:      -6.6      1.704      2.562
REMARK  Name = 
REMARK  8 active torsions:
REMARK  status: ('A' for Active; 'I' for Inactive)
REMARK    1  A    between atoms: C_1  and  C_2
REMARK    2  A    between atoms: C_3  and  O_4
REMARK    3  A    between atoms: C_5  and  O_6
REMARK    4  A    between atoms: C_5  and  C_15
REMARK    5  A    between atoms: O_6  and  C_7
REMARK    6  A    between atoms: C_7  and  C_9
REMARK    7  A    between atoms: C_11  and  O_12
REMARK    8  A    between atoms: C_13  and  N_14
REMARK                            x       y       z     vdW  Elec       q    Type
REMARK                         _______ _______ _______ _____ _____    ______ ____
ROOT
ATOM      1  C   UNL     1     116.278  77.458  77.644  0.00  0.00    +0.000 C 
ATOM      2  C   UNL     1     115.191  76.856  78.496  0.00  0.00    +0.000 C 
ATOM      3  C   UNL     1     115.237  75.814  79.330  0.00  0.00    +0.000 C 
ATOM      4  C   UNL     1     113.853  75.650  80.075  0.00  0.00    +0.000 C 
ATOM      5  C   UNL     1     113.299  77.048  79.596  0.00  0.00    +0.000 C 
ATOM      6  O   UNL     1     113.955  77.405  78.352  0.00  0.00    +0.000 OA
ENDROOT
BRANCH   4   7
ATOM      7  C   UNL     1     112.937  74.369  79.527  0.00  0.00    +0.000 C 
ATOM      8  C   UNL     1     111.827  73.784  80.093  0.00  0.00    +0.000 C 
ATOM      9  C   UNL     1     110.928  72.535  79.675  0.00  0.00    +0.000 C 
ATOM     10  C   UNL     1     109.758  72.703  78.611  0.00  0.00    +0.000 C 
ATOM     11  C   UNL     1     110.558  72.380  77.363  0.00  0.00    +0.000 C 
ATOM     12  C   UNL     1     111.411  73.345  76.994  0.00  0.00    +0.000 C 
ATOM     13  C   UNL     1     112.857  72.997  77.179  0.00  0.00    +0.000 C 
ATOM     14  C   UNL     1     113.506  73.961  78.165  0.00  0.00    +0.000 C 
ENDBRANCH   4   7
BRANCH   3  15
ATOM     15  O   UNL     1     116.298  75.057  79.673  0.00  0.00    +0.000 OA
ATOM     16  H   UNL     1     116.121  74.692  80.566  0.00  0.00    +0.000 HD
ENDBRANCH   3  15
BRANCH   4  17
ATOM     17  O   UNL     1     114.197  75.493  81.487  0.00  0.00    +0.000 OA
BRANCH  17  18
ATOM     18  C   UNL     1     114.171  76.554  82.352  0.00  0.00    +0.000 C 
ATOM     19  O   UNL     1     115.022  77.474  82.262  0.00  0.00    +0.000 OA
BRANCH  18  20
ATOM     20  C   UNL     1     112.999  76.564  83.336  0.00  0.00    +0.000 C 
ATOM     21  C   UNL     1     113.251  75.807  84.685  0.00  0.00    +0.000 C 
ATOM     22  C   UNL     1     111.774  75.359  84.663  0.00  0.00    +0.000 C 
ATOM     23  C   UNL     1     111.830  75.552  83.116  0.00  0.00    +0.000 C 
BRANCH  23  24
ATOM     24  N   UNL     1     110.609  76.243  82.679  0.00  0.00    +0.000 NA
ATOM     25  H   UNL     1     110.171  75.813  81.862  0.00  0.00    +0.000 HD
ATOM     26  H   UNL     1     110.806  77.192  82.346  0.00  0.00    +0.000 HD
ENDBRANCH  23  24
BRANCH  22  27
ATOM     27  O   UNL     1     110.846  76.184  85.411  0.00  0.00    +0.000 OA
ATOM     28  H   UNL     1     111.317  76.434  86.224  0.00  0.00    +0.000 HD
ENDBRANCH  22  27
ENDBRANCH  18  20
ENDBRANCH  17  18
ENDBRANCH   4  17
TORSDOF 7
ENDMDL
MODEL 6
REMARK VINA RESULT:      -6.5      1.667      2.017
REMARK  Name = 
REMARK  8 active torsions:
REMARK  status: ('A' for Active; 'I' for Inactive)
REMARK    1  A    between atoms: C_1  and  C_2
REMARK    2  A    between atoms: C_3  and  O_4
REMARK    3  A    between atoms: C_5  and  O_6
REMARK    4  A    between atoms: C_5  and  C_15
REMARK    5  A    between atoms: O_6  and  C_7
REMARK    6  A    between atoms: C_7  and  C_9
REMARK    7  A    between atoms: C_11  and  O_12
REMARK    8  A    between atoms: C_13  and  N_14
REMARK                            x       y       z     vdW  Elec       q    Type
REMARK                         _______ _______ _______ _____ _____    ______ ____
ROOT
ATOM      1  C   UNL     1     116.707  77.418  78.167  0.00  0.00    +0.000 C 
ATOM      2  C   UNL     1     115.423  76.872  78.736  0.00  0.00    +0.000 C 
ATOM      3  C   UNL     1     115.208  75.769  79.458  0.00  0.00    +0.000 C 
ATOM      4  C   UNL     1     113.695  75.698  79.908  0.00  0.00    +0.000 C 
ATOM      5  C   UNL     1     113.376  77.180  79.470  0.00  0.00    +0.000 C 
ATOM      6  O   UNL     1     114.295  77.560  78.414  0.00  0.00    +0.000 OA
ENDROOT
BRANCH   4   7
ATOM      7  C   UNL     1     112.794  74.569  79.075  0.00  0.00    +0.000 C 
ATOM      8  C   UNL     1     112.861  74.205  77.749  0.00  0.00    +0.000 C 
ATOM      9  C   UNL     1     112.014  73.188  76.860  0.00  0.00    +0.000 C 
ATOM     10  C   UNL     1     112.366  71.637  76.852  0.00  0.00    +0.000 C 
ATOM     11  C   UNL     1     111.452  71.207  77.985  0.00  0.00    +0.000 C 
ATOM     12  C   UNL     1     111.872  71.582  79.201  0.00  0.00    +0.000 C 
ATOM     13  C   UNL     1     111.033  72.643  79.845  0.00  0.00    +0.000 C 
ATOM     14  C   UNL     1     111.870  73.894  80.091  0.00  0.00    +0.000 C 
ENDBRANCH   4   7
BRANCH   3  15
ATOM     15  O   UNL     1     116.108  74.879  79.921  0.00  0.00    +0.000 OA
ATOM     16  H   UNL     1     115.958  74.787  80.887  0.00  0.00    +0.000 HD
ENDBRANCH   3  15
BRANCH   4  17
ATOM     17  O   UNL     1     113.737  75.396  81.338  0.00  0.00    +0.000 OA
BRANCH  17  18
ATOM     18  C   UNL     1     113.866  76.387  82.275  0.00  0.00    +0.000 C 
ATOM     19  O   UNL     1     114.782  77.241  82.181  0.00  0.00    +0.000 OA
BRANCH  18  20
ATOM     20  C   UNL     1     112.775  76.415  83.348  0.00  0.00    +0.000 C 
ATOM     21  C   UNL     1     113.036  75.498  84.591  0.00  0.00    +0.000 C 
ATOM     22  C   UNL     1     111.521  75.210  84.648  0.00  0.00    +0.000 C 
ATOM     23  C   UNL     1     111.488  75.558  83.128  0.00  0.00    +0.000 C 
BRANCH  23  24
ATOM     24  N   UNL     1     110.324  76.415  82.861  0.00  0.00    +0.000 NA
ATOM     25  H   UNL     1     109.947  76.304  81.918  0.00  0.00    +0.000 HD
ATOM     26  H   UNL     1     110.569  77.410  82.882  0.00  0.00    +0.000 HD
ENDBRANCH  23  24
BRANCH  22  27
ATOM     27  O   UNL     1     110.746  76.043  85.547  0.00  0.00    +0.000 OA
ATOM     28  H   UNL     1     110.008  75.486  85.846  0.00  0.00    +0.000 HD
ENDBRANCH  22  27
ENDBRANCH  18  20
ENDBRANCH  17  18
ENDBRANCH   4  17
TORSDOF 7
ENDMDL
MODEL 7
REMARK VINA RESULT:      -6.4      2.697      5.178
REMARK  Name = 
REMARK  8 active torsions:
REMARK  status: ('A' for Active; 'I' for Inactive)
REMARK    1  A    between atoms: C_1  and  C_2
REMARK    2  A    between atoms: C_3  and  O_4
REMARK    3  A    between atoms: C_5  and  O_6
REMARK    4  A    between atoms: C_5  and  C_15
REMARK    5  A    between atoms: O_6  and  C_7
REMARK    6  A    between atoms: C_7  and  C_9
REMARK    7  A    between atoms: C_11  and  O_12
REMARK    8  A    between atoms: C_13  and  N_14
REMARK                            x       y       z     vdW  Elec       q    Type
REMARK                         _______ _______ _______ _____ _____    ______ ____
ROOT
ATOM      1  C   UNL     1     112.074  75.341  85.286  0.00  0.00    +0.000 C 
ATOM      2  C   UNL     1     112.480  75.141  83.849  0.00  0.00    +0.000 C 
ATOM      3  C   UNL     1     111.829  75.452  82.725  0.00  0.00    +0.000 C 
ATOM      4  C   UNL     1     112.732  75.139  81.467  0.00  0.00    +0.000 C 
ATOM      5  C   UNL     1     114.039  74.906  82.320  0.00  0.00    +0.000 C 
ATOM      6  O   UNL     1     113.654  74.484  83.654  0.00  0.00    +0.000 OA
ENDROOT
BRANCH   4   7
ATOM      7  C   UNL     1     112.263  73.781  80.619  0.00  0.00    +0.000 C 
ATOM      8  C   UNL     1     111.054  73.497  80.026  0.00  0.00    +0.000 C 
ATOM      9  C   UNL     1     110.501  72.219  79.250  0.00  0.00    +0.000 C 
ATOM     10  C   UNL     1     110.812  72.016  77.704  0.00  0.00    +0.000 C 
ATOM     11  C   UNL     1     112.093  71.214  77.849  0.00  0.00    +0.000 C 
ATOM     12  C   UNL     1     113.148  71.934  78.254  0.00  0.00    +0.000 C 
ATOM     13  C   UNL     1     113.609  71.626  79.646  0.00  0.00    +0.000 C 
ATOM     14  C   UNL     1     113.487  72.867  80.524  0.00  0.00    +0.000 C 
ENDBRANCH   4   7
BRANCH   3  15
ATOM     15  O   UNL     1     110.648  76.088  82.586  0.00  0.00    +0.000 OA
ATOM     16  H   UNL     1     109.955  75.399  82.495  0.00  0.00    +0.000 HD
ENDBRANCH   3  15
BRANCH   4  17
ATOM     17  O   UNL     1     112.656  76.339  80.636  0.00  0.00    +0.000 OA
BRANCH  17  18
ATOM     18  C   UNL     1     113.743  76.798  79.942  0.00  0.00    +0.000 C 
ATOM     19  O   UNL     1     114.790  77.141  80.546  0.00  0.00    +0.000 OA
BRANCH  18  20
ATOM     20  C   UNL     1     113.606  76.765  78.418  0.00  0.00    +0.000 C 
ATOM     21  C   UNL     1     113.675  75.339  77.771  0.00  0.00    +0.000 C 
ATOM     22  C   UNL     1     114.419  75.963  76.571  0.00  0.00    +0.000 C 
ATOM     23  C   UNL     1     114.858  77.098  77.547  0.00  0.00    +0.000 C 
BRANCH  23  24
ATOM     24  N   UNL     1     114.701  78.393  76.871  0.00  0.00    +0.000 NA
ATOM     25  H   UNL     1     115.445  79.058  77.091  0.00  0.00    +0.000 HD
ATOM     26  H   UNL     1     113.864  78.891  77.189  0.00  0.00    +0.000 HD
ENDBRANCH  23  24
BRANCH  22  27
ATOM     27  O   UNL     1     113.598  76.333  75.434  0.00  0.00    +0.000 OA
ATOM     28  H   UNL     1     114.223  76.608  74.742  0.00  0.00    +0.000 HD
ENDBRANCH  22  27
ENDBRANCH  18  20
ENDBRANCH  17  18
ENDBRANCH   4  17
TORSDOF 7
ENDMDL
MODEL 8
REMARK VINA RESULT:      -6.4     13.945     16.001
REMARK  Name = 
REMARK  8 active torsions:
REMARK  status: ('A' for Active; 'I' for Inactive)
REMARK    1  A    between atoms: C_1  and  C_2
REMARK    2  A    between atoms: C_3  and  O_4
REMARK    3  A    between atoms: C_5  and  O_6
REMARK    4  A    between atoms: C_5  and  C_15
REMARK    5  A    between atoms: O_6  and  C_7
REMARK    6  A    between atoms: C_7  and  C_9
REMARK    7  A    between atoms: C_11  and  O_12
REMARK    8  A    between atoms: C_13  and  N_14
REMARK                            x       y       z     vdW  Elec       q    Type
REMARK                         _______ _______ _______ _____ _____    ______ ____
ROOT
ATOM      1  C   UNL     1     106.718  64.028  75.558  0.00  0.00    +0.000 C 
ATOM      2  C   UNL     1     105.385  64.190  76.241  0.00  0.00    +0.000 C 
ATOM      3  C   UNL     1     105.092  64.734  77.425  0.00  0.00    +0.000 C 
ATOM      4  C   UNL     1     103.526  64.764  77.640  0.00  0.00    +0.000 C 
ATOM      5  C   UNL     1     103.199  64.385  76.143  0.00  0.00    +0.000 C 
ATOM      6  O   UNL     1     104.320  63.644  75.596  0.00  0.00    +0.000 OA
ENDROOT
BRANCH   4   7
ATOM      7  C   UNL     1     102.972  63.630  78.730  0.00  0.00    +0.000 C 
ATOM      8  C   UNL     1     103.393  63.377  80.016  0.00  0.00    +0.000 C 
ATOM      9  C   UNL     1     102.966  62.290  81.101  0.00  0.00    +0.000 C 
ATOM     10  C   UNL     1     101.697  62.532  82.030  0.00  0.00    +0.000 C 
ATOM     11  C   UNL     1     100.658  61.868  81.145  0.00  0.00    +0.000 C 
ATOM     12  C   UNL     1     100.340  62.571  80.050  0.00  0.00    +0.000 C 
ATOM     13  C   UNL     1     100.820  61.966  78.765  0.00  0.00    +0.000 C 
ATOM     14  C   UNL     1     101.791  62.914  78.071  0.00  0.00    +0.000 C 
ENDBRANCH   4   7
BRANCH   3  15
ATOM     15  O   UNL     1     105.919  65.340  78.300  0.00  0.00    +0.000 OA
ATOM     16  H   UNL     1     106.801  64.919  78.208  0.00  0.00    +0.000 HD
ENDBRANCH   3  15
BRANCH   4  17
ATOM     17  O   UNL     1     103.229  66.123  78.087  0.00  0.00    +0.000 OA
BRANCH  17  18
ATOM     18  C   UNL     1     102.504  66.989  77.312  0.00  0.00    +0.000 C 
ATOM     19  O   UNL     1     103.047  67.605  76.362  0.00  0.00    +0.000 OA
BRANCH  18  20
ATOM     20  C   UNL     1     101.009  67.059  77.636  0.00  0.00    +0.000 C 
ATOM     21  C   UNL     1     100.566  66.275  78.918  0.00  0.00    +0.000 C 
ATOM     22  C   UNL     1      99.251  65.915  78.195  0.00  0.00    +0.000 C 
ATOM     23  C   UNL     1     100.032  66.119  76.860  0.00  0.00    +0.000 C 
BRANCH  23  24
ATOM     24  N   UNL     1      99.192  66.885  75.930  0.00  0.00    +0.000 NA
ATOM     25  H   UNL     1      99.497  66.815  74.957  0.00  0.00    +0.000 HD
ATOM     26  H   UNL     1      99.252  67.894  76.103  0.00  0.00    +0.000 HD
ENDBRANCH  23  24
BRANCH  22  27
ATOM     27  O   UNL     1      98.121  66.786  78.453  0.00  0.00    +0.000 OA
ATOM     28  H   UNL     1      98.315  67.218  79.303  0.00  0.00    +0.000 HD
ENDBRANCH  22  27
ENDBRANCH  18  20
ENDBRANCH  17  18
ENDBRANCH   4  17
TORSDOF 7
ENDMDL
MODEL 9
REMARK VINA RESULT:      -6.4     19.295     22.611
REMARK  Name = 
REMARK  8 active torsions:
REMARK  status: ('A' for Active; 'I' for Inactive)
REMARK    1  A    between atoms: C_1  and  C_2
REMARK    2  A    between atoms: C_3  and  O_4
REMARK    3  A    between atoms: C_5  and  O_6
REMARK    4  A    between atoms: C_5  and  C_15
REMARK    5  A    between atoms: O_6  and  C_7
REMARK    6  A    between atoms: C_7  and  C_9
REMARK    7  A    between atoms: C_11  and  O_12
REMARK    8  A    between atoms: C_13  and  N_14
REMARK                            x       y       z     vdW  Elec       q    Type
REMARK                         _______ _______ _______ _____ _____    ______ ____
ROOT
ATOM      1  C   UNL     1     104.120  77.073 104.586  0.00  0.00    +0.000 C 
ATOM      2  C   UNL     1     103.847  76.670 103.160  0.00  0.00    +0.000 C 
ATOM      3  C   UNL     1     103.641  75.458 102.639  0.00  0.00    +0.000 C 
ATOM      4  C   UNL     1     103.286  75.577 101.103  0.00  0.00    +0.000 C 
ATOM      5  C   UNL     1     103.086  77.142 101.154  0.00  0.00    +0.000 C 
ATOM      6  O   UNL     1     103.879  77.676 102.246  0.00  0.00    +0.000 OA
ENDROOT
BRANCH   4   7
ATOM      7  C   UNL     1     104.523  75.116 100.085  0.00  0.00    +0.000 C 
ATOM      8  C   UNL     1     105.071  75.789  99.016  0.00  0.00    +0.000 C 
ATOM      9  C   UNL     1     106.205  75.409  97.963  0.00  0.00    +0.000 C 
ATOM     10  C   UNL     1     107.741  75.617  98.319  0.00  0.00    +0.000 C 
ATOM     11  C   UNL     1     108.010  74.245  98.909  0.00  0.00    +0.000 C 
ATOM     12  C   UNL     1     107.466  74.051 100.118  0.00  0.00    +0.000 C 
ATOM     13  C   UNL     1     106.325  73.079 100.135  0.00  0.00    +0.000 C 
ATOM     14  C   UNL     1     105.051  73.774 100.599  0.00  0.00    +0.000 C 
ENDBRANCH   4   7
BRANCH   3  15
ATOM     15  O   UNL     1     103.566  74.271 103.273  0.00  0.00    +0.000 OA
ATOM     16  H   UNL     1     103.598  73.570 102.586  0.00  0.00    +0.000 HD
ENDBRANCH   3  15
BRANCH   4  17
ATOM     17  O   UNL     1     102.104  74.738 100.920  0.00  0.00    +0.000 OA
BRANCH  17  18
ATOM     18  C   UNL     1     101.188  74.997  99.935  0.00  0.00    +0.000 C 
ATOM     19  O   UNL     1     101.416  74.662  98.746  0.00  0.00    +0.000 OA
BRANCH  18  20
ATOM     20  C   UNL     1      99.873  75.618 100.414  0.00  0.00    +0.000 C 
ATOM     21  C   UNL     1      99.743  75.793 101.965  0.00  0.00    +0.000 C 
ATOM     22  C   UNL     1      98.241  75.460 101.836  0.00  0.00    +0.000 C 
ATOM     23  C   UNL     1      98.612  74.704 100.524  0.00  0.00    +0.000 C 
BRANCH  23  24
ATOM     24  N   UNL     1      97.626  75.040  99.487  0.00  0.00    +0.000 NA
ATOM     25  H   UNL     1      97.685  74.439  98.662  0.00  0.00    +0.000 HD
ATOM     26  H   UNL     1      97.791  75.970  99.090  0.00  0.00    +0.000 HD
ENDBRANCH  23  24
BRANCH  22  27
ATOM     27  O   UNL     1      97.343  76.594 101.730  0.00  0.00    +0.000 OA
ATOM     28  H   UNL     1      96.732  76.513 102.482  0.00  0.00    +0.000 HD
ENDBRANCH  22  27
ENDBRANCH  18  20
ENDBRANCH  17  18
ENDBRANCH   4  17
TORSDOF 7
ENDMDL
