MODEL 1
REMARK VINA RESULT:      -6.3      0.000      0.000
REMARK  Name = 
REMARK  6 active torsions:
REMARK  status: ('A' for Active; 'I' for Inactive)
REMARK    1  A    between atoms: O_1  and  C_2
REMARK    2  A    between atoms: C_5  and  C_6
REMARK    3  A    between atoms: C_6  and  O_7
REMARK    4  A    between atoms: C_6  and  C_8
REMARK    5  A    between atoms: C_8  and  C_9
REMARK    6  A    between atoms: C_14  and  O_15
REMARK                            x       y       z     vdW  Elec       q    Type
REMARK                         _______ _______ _______ _____ _____    ______ ____
ROOT
ATOM      1  C   UNL     1     107.988  74.806  98.531  0.00  0.00    +0.000 C 
ENDROOT
BRANCH   1   5
ATOM      2  C   UNL     1     111.101  77.840  99.431  0.00  0.00    +0.000 C 
ATOM      3  C   UNL     1     110.810  76.327  99.232  0.00  0.00    +0.000 C 
ATOM      4  C   UNL     1     109.547  76.808  98.549  0.00  0.00    +0.000 C 
ATOM      5  C   UNL     1     108.370  76.235  98.256  0.00  0.00    +0.000 C 
ATOM      6  C   UNL     1     110.117  78.187  98.283  0.00  0.00    +0.000 C 
BRANCH   2   7
ATOM      7  O   UNL     1     112.470  78.257  99.235  0.00  0.00    +0.000 OA
ATOM      8  H   UNL     1     112.437  78.870  98.481  0.00  0.00    +0.000 HD
ENDBRANCH   2   7
ENDBRANCH   1   5
BRANCH   1   9
ATOM      9  O   UNL     1     107.482  74.260  97.313  0.00  0.00    +0.000 OA
ATOM     10  H   UNL     1     106.685  74.759  97.071  0.00  0.00    +0.000 HD
ENDBRANCH   1   9
BRANCH   1  11
ATOM     11  C   UNL     1     106.930  74.692  99.644  0.00  0.00    +0.000 C 
BRANCH  11  12
ATOM     12  C   UNL     1     105.663  75.440  99.302  0.00  0.00    +0.000 C 
ATOM     13  C   UNL     1     104.779  75.968 100.168  0.00  0.00    +0.000 C 
ATOM     14  C   UNL     1     104.902  75.970 101.670  0.00  0.00    +0.000 C 
ATOM     15  C   UNL     1     103.999  77.113 102.139  0.00  0.00    +0.000 C 
ATOM     16  C   UNL     1     103.551  77.838 100.877  0.00  0.00    +0.000 C 
ATOM     17  C   UNL     1     103.551  76.763  99.801  0.00  0.00    +0.000 C 
BRANCH  17  18
ATOM     18  O   UNL     1     103.616  77.339  98.512  0.00  0.00    +0.000 OA
ATOM     19  H   UNL     1     103.772  78.289  98.632  0.00  0.00    +0.000 HD
ENDBRANCH  17  18
ENDBRANCH  11  12
ENDBRANCH   1  11
TORSDOF 6
ENDMDL
MODEL 2
REMARK VINA RESULT:      -6.0     17.705     19.651
REMARK  Name = 
REMARK  6 active torsions:
REMARK  status: ('A' for Active; 'I' for Inactive)
REMARK    1  A    between atoms: O_1  and  C_2
REMARK    2  A    between atoms: C_5  and  C_6
REMARK    3  A    between atoms: C_6  and  O_7
REMARK    4  A    between atoms: C_6  and  C_8
REMARK    5  A    between atoms: C_8  and  C_9
REMARK    6  A    between atoms: C_14  and  O_15
REMARK                            x       y       z     vdW  Elec       q    Type
REMARK                         _______ _______ _______ _____ _____    ______ ____
ROOT
ATOM      1  C   UNL     1     113.228  76.225  81.134  0.00  0.00    +0.000 C 
ENDROOT
BRANCH   1   5
ATOM      2  C   UNL     1     112.026  75.063  85.246  0.00  0.00    +0.000 C 
ATOM      3  C   UNL     1     113.197  75.537  84.341  0.00  0.00    +0.000 C 
ATOM      4  C   UNL     1     112.099  75.964  83.391  0.00  0.00    +0.000 C 
ATOM      5  C   UNL     1     112.057  76.239  82.078  0.00  0.00    +0.000 C 
ATOM      6  C   UNL     1     111.051  76.000  84.486  0.00  0.00    +0.000 C 
BRANCH   2   7
ATOM      7  O   UNL     1     112.169  75.317  86.661  0.00  0.00    +0.000 OA
ATOM      8  H   UNL     1     112.231  76.284  86.734  0.00  0.00    +0.000 HD
ENDBRANCH   2   7
ENDBRANCH   1   5
BRANCH   1   9
ATOM      9  O   UNL     1     113.022  77.274  80.187  0.00  0.00    +0.000 OA
ATOM     10  H   UNL     1     113.427  78.082  80.545  0.00  0.00    +0.000 HD
ENDBRANCH   1   9
BRANCH   1  11
ATOM     11  C   UNL     1     113.370  74.875  80.406  0.00  0.00    +0.000 C 
BRANCH  11  12
ATOM     12  C   UNL     1     112.059  74.405  79.819  0.00  0.00    +0.000 C 
ATOM     13  C   UNL     1     111.885  73.419  78.920  0.00  0.00    +0.000 C 
ATOM     14  C   UNL     1     112.966  72.536  78.353  0.00  0.00    +0.000 C 
ATOM     15  C   UNL     1     112.234  71.289  77.851  0.00  0.00    +0.000 C 
ATOM     16  C   UNL     1     110.795  71.429  78.327  0.00  0.00    +0.000 C 
ATOM     17  C   UNL     1     110.560  72.930  78.393  0.00  0.00    +0.000 C 
BRANCH  17  18
ATOM     18  O   UNL     1     109.469  73.233  79.240  0.00  0.00    +0.000 OA
ATOM     19  H   UNL     1     109.838  73.495  80.097  0.00  0.00    +0.000 HD
ENDBRANCH  17  18
ENDBRANCH  11  12
ENDBRANCH   1  11
TORSDOF 6
ENDMDL
MODEL 3
REMARK VINA RESULT:      -5.9      1.220      6.127
REMARK  Name = 
REMARK  6 active torsions:
REMARK  status: ('A' for Active; 'I' for Inactive)
REMARK    1  A    between atoms: O_1  and  C_2
REMARK    2  A    between atoms: C_5  and  C_6
REMARK    3  A    between atoms: C_6  and  O_7
REMARK    4  A    between atoms: C_6  and  C_8
REMARK    5  A    between atoms: C_8  and  C_9
REMARK    6  A    between atoms: C_14  and  O_15
REMARK                            x       y       z     vdW  Elec       q    Type
REMARK                         _______ _______ _______ _____ _____    ______ ____
ROOT
ATOM      1  C   UNL     1     107.802  74.661  98.086  0.00  0.00    +0.000 C 
ENDROOT
BRANCH   1   5
ATOM      2  C   UNL     1     104.023  76.679  99.248  0.00  0.00    +0.000 C 
ATOM      3  C   UNL     1     104.784  75.947  98.108  0.00  0.00    +0.000 C 
ATOM      4  C   UNL     1     105.672  75.438  99.224  0.00  0.00    +0.000 C 
ATOM      5  C   UNL     1     106.909  74.922  99.269  0.00  0.00    +0.000 C 
ATOM      6  C   UNL     1     104.624  75.697 100.289  0.00  0.00    +0.000 C 
BRANCH   2   7
ATOM      7  O   UNL     1     102.582  76.688  99.150  0.00  0.00    +0.000 OA
ATOM      8  H   UNL     1     102.310  75.789  99.400  0.00  0.00    +0.000 HD
ENDBRANCH   2   7
ENDBRANCH   1   5
BRANCH   1   9
ATOM      9  O   UNL     1     107.400  73.413  97.519  0.00  0.00    +0.000 OA
ATOM     10  H   UNL     1     107.573  73.450  96.564  0.00  0.00    +0.000 HD
ENDBRANCH   1   9
BRANCH   1  11
ATOM     11  C   UNL     1     109.289  74.608  98.483  0.00  0.00    +0.000 C 
BRANCH  11  12
ATOM     12  C   UNL     1     109.927  75.978  98.481  0.00  0.00    +0.000 C 
ATOM     13  C   UNL     1     110.421  76.640  99.543  0.00  0.00    +0.000 C 
ATOM     14  C   UNL     1     110.493  76.120 100.956  0.00  0.00    +0.000 C 
ATOM     15  C   UNL     1     111.583  76.957 101.629  0.00  0.00    +0.000 C 
ATOM     16  C   UNL     1     112.220  77.784 100.521  0.00  0.00    +0.000 C 
ATOM     17  C   UNL     1     111.106  77.982  99.505  0.00  0.00    +0.000 C 
BRANCH  17  18
ATOM     18  O   UNL     1     111.633  78.312  98.236  0.00  0.00    +0.000 OA
ATOM     19  H   UNL     1     112.372  77.707  98.068  0.00  0.00    +0.000 HD
ENDBRANCH  17  18
ENDBRANCH  11  12
ENDBRANCH   1  11
TORSDOF 6
ENDMDL
MODEL 4
REMARK VINA RESULT:      -5.8     23.290     24.908
REMARK  Name = 
REMARK  6 active torsions:
REMARK  status: ('A' for Active; 'I' for Inactive)
REMARK    1  A    between atoms: O_1  and  C_2
REMARK    2  A    between atoms: C_5  and  C_6
REMARK    3  A    between atoms: C_6  and  O_7
REMARK    4  A    between atoms: C_6  and  C_8
REMARK    5  A    between atoms: C_8  and  C_9
REMARK    6  A    between atoms: C_14  and  O_15
REMARK                            x       y       z     vdW  Elec       q    Type
REMARK                         _______ _______ _______ _____ _____    ______ ____
ROOT
ATOM      1  C   UNL     1     112.158  75.326  74.260  0.00  0.00    +0.000 C 
ENDROOT
BRANCH   1   5
ATOM      2  C   UNL     1     113.435  79.046  72.203  0.00  0.00    +0.000 C 
ATOM      3  C   UNL     1     112.407  77.881  72.217  0.00  0.00    +0.000 C 
ATOM      4  C   UNL     1     112.872  77.681  73.644  0.00  0.00    +0.000 C 
ATOM      5  C   UNL     1     112.809  76.659  74.510  0.00  0.00    +0.000 C 
ATOM      6  C   UNL     1     113.414  79.093  73.753  0.00  0.00    +0.000 C 
BRANCH   2   7
ATOM      7  O   UNL     1     113.019  80.255  71.530  0.00  0.00    +0.000 OA
ATOM      8  H   UNL     1     112.223  80.002  71.034  0.00  0.00    +0.000 HD
ENDBRANCH   2   7
ENDBRANCH   1   5
BRANCH   1   9
ATOM      9  O   UNL     1     110.745  75.528  74.314  0.00  0.00    +0.000 OA
ATOM     10  H   UNL     1     110.319  74.770  73.880  0.00  0.00    +0.000 HD
ENDBRANCH   1   9
BRANCH   1  11
ATOM     11  C   UNL     1     112.583  74.269  75.296  0.00  0.00    +0.000 C 
BRANCH  11  12
ATOM     12  C   UNL     1     111.398  73.676  76.021  0.00  0.00    +0.000 C 
ATOM     13  C   UNL     1     111.425  72.703  76.951  0.00  0.00    +0.000 C 
ATOM     14  C   UNL     1     112.660  72.039  77.503  0.00  0.00    +0.000 C 
ATOM     15  C   UNL     1     112.225  71.454  78.848  0.00  0.00    +0.000 C 
ATOM     16  C   UNL     1     110.815  71.973  79.095  0.00  0.00    +0.000 C 
ATOM     17  C   UNL     1     110.233  72.169  77.704  0.00  0.00    +0.000 C 
BRANCH  17  18
ATOM     18  O   UNL     1     109.139  73.063  77.736  0.00  0.00    +0.000 OA
ATOM     19  H   UNL     1     109.493  73.953  77.581  0.00  0.00    +0.000 HD
ENDBRANCH  17  18
ENDBRANCH  11  12
ENDBRANCH   1  11
TORSDOF 6
ENDMDL
MODEL 5
REMARK VINA RESULT:      -5.7     16.776     18.895
REMARK  Name = 
REMARK  6 active torsions:
REMARK  status: ('A' for Active; 'I' for Inactive)
REMARK    1  A    between atoms: O_1  and  C_2
REMARK    2  A    between atoms: C_5  and  C_6
REMARK    3  A    between atoms: C_6  and  O_7
REMARK    4  A    between atoms: C_6  and  C_8
REMARK    5  A    between atoms: C_8  and  C_9
REMARK    6  A    between atoms: C_14  and  O_15
REMARK                            x       y       z     vdW  Elec       q    Type
REMARK                         _______ _______ _______ _____ _____    ______ ____
ROOT
ATOM      1  C   UNL     1     113.081  76.088  80.838  0.00  0.00    +0.000 C 
ENDROOT
BRANCH   1   5
ATOM      2  C   UNL     1     112.268  75.079  85.083  0.00  0.00    +0.000 C 
ATOM      3  C   UNL     1     113.346  75.531  84.060  0.00  0.00    +0.000 C 
ATOM      4  C   UNL     1     112.161  75.904  83.195  0.00  0.00    +0.000 C 
ATOM      5  C   UNL     1     111.998  76.125  81.882  0.00  0.00    +0.000 C 
ATOM      6  C   UNL     1     111.213  75.971  84.376  0.00  0.00    +0.000 C 
BRANCH   2   7
ATOM      7  O   UNL     1     112.531  75.392  86.469  0.00  0.00    +0.000 OA
ATOM      8  H   UNL     1     111.705  75.787  86.795  0.00  0.00    +0.000 HD
ENDBRANCH   2   7
ENDBRANCH   1   5
BRANCH   1   9
ATOM      9  O   UNL     1     113.156  77.391  80.258  0.00  0.00    +0.000 OA
ATOM     10  H   UNL     1     114.095  77.608  80.134  0.00  0.00    +0.000 HD
ENDBRANCH   1   9
BRANCH   1  11
ATOM     11  C   UNL     1     112.800  75.038  79.747  0.00  0.00    +0.000 C 
BRANCH  11  12
ATOM     12  C   UNL     1     112.644  73.649  80.321  0.00  0.00    +0.000 C 
ATOM     13  C   UNL     1     113.593  72.919  80.935  0.00  0.00    +0.000 C 
ATOM     14  C   UNL     1     115.003  73.363  81.228  0.00  0.00    +0.000 C 
ATOM     15  C   UNL     1     115.474  72.458  82.368  0.00  0.00    +0.000 C 
ATOM     16  C   UNL     1     114.249  71.666  82.807  0.00  0.00    +0.000 C 
ATOM     17  C   UNL     1     113.397  71.557  81.552  0.00  0.00    +0.000 C 
BRANCH  17  18
ATOM     18  O   UNL     1     112.051  71.275  81.880  0.00  0.00    +0.000 OA
ATOM     19  H   UNL     1     111.593  71.070  81.050  0.00  0.00    +0.000 HD
ENDBRANCH  17  18
ENDBRANCH  11  12
ENDBRANCH   1  11
TORSDOF 6
ENDMDL
MODEL 6
REMARK VINA RESULT:      -5.7     17.315     19.243
REMARK  Name = 
REMARK  6 active torsions:
REMARK  status: ('A' for Active; 'I' for Inactive)
REMARK    1  A    between atoms: O_1  and  C_2
REMARK    2  A    between atoms: C_5  and  C_6
REMARK    3  A    between atoms: C_6  and  O_7
REMARK    4  A    between atoms: C_6  and  C_8
REMARK    5  A    between atoms: C_8  and  C_9
REMARK    6  A    between atoms: C_14  and  O_15
REMARK                            x       y       z     vdW  Elec       q    Type
REMARK                         _______ _______ _______ _____ _____    ______ ____
ROOT
ATOM      1  C   UNL     1     113.242  71.995  81.533  0.00  0.00    +0.000 C 
ENDROOT
BRANCH   1   5
ATOM      2  C   UNL     1     109.953  72.189  78.558  0.00  0.00    +0.000 C 
ATOM      3  C   UNL     1     110.727  72.962  79.661  0.00  0.00    +0.000 C 
ATOM      4  C   UNL     1     111.790  71.904  79.455  0.00  0.00    +0.000 C 
ATOM      5  C   UNL     1     112.821  71.462  80.190  0.00  0.00    +0.000 C 
ATOM      6  C   UNL     1     111.277  71.540  78.075  0.00  0.00    +0.000 C 
BRANCH   2   7
ATOM      7  O   UNL     1     109.255  72.996  77.584  0.00  0.00    +0.000 OA
ATOM      8  H   UNL     1     108.325  72.722  77.656  0.00  0.00    +0.000 HD
ENDBRANCH   2   7
ENDBRANCH   1   5
BRANCH   1   9
ATOM      9  O   UNL     1     112.174  71.737  82.445  0.00  0.00    +0.000 OA
ATOM     10  H   UNL     1     112.546  71.721  83.343  0.00  0.00    +0.000 HD
ENDBRANCH   1   9
BRANCH   1  11
ATOM     11  C   UNL     1     113.550  73.503  81.488  0.00  0.00    +0.000 C 
BRANCH  11  12
ATOM     12  C   UNL     1     113.421  74.149  82.848  0.00  0.00    +0.000 C 
ATOM     13  C   UNL     1     112.567  75.128  83.198  0.00  0.00    +0.000 C 
ATOM     14  C   UNL     1     111.515  75.746  82.312  0.00  0.00    +0.000 C 
ATOM     15  C   UNL     1     110.498  76.361  83.277  0.00  0.00    +0.000 C 
ATOM     16  C   UNL     1     110.910  75.901  84.669  0.00  0.00    +0.000 C 
ATOM     17  C   UNL     1     112.417  75.716  84.578  0.00  0.00    +0.000 C 
BRANCH  17  18
ATOM     18  O   UNL     1     112.884  74.868  85.607  0.00  0.00    +0.000 OA
ATOM     19  H   UNL     1     113.246  74.075  85.181  0.00  0.00    +0.000 HD
ENDBRANCH  17  18
ENDBRANCH  11  12
ENDBRANCH   1  11
TORSDOF 6
ENDMDL
MODEL 7
REMARK VINA RESULT:      -5.6     18.570     20.575
REMARK  Name = 
REMARK  6 active torsions:
REMARK  status: ('A' for Active; 'I' for Inactive)
REMARK    1  A    between atoms: O_1  and  C_2
REMARK    2  A    between atoms: C_5  and  C_6
REMARK    3  A    between atoms: C_6  and  O_7
REMARK    4  A    between atoms: C_6  and  C_8
REMARK    5  A    between atoms: C_8  and  C_9
REMARK    6  A    between atoms: C_14  and  O_15
REMARK                            x       y       z     vdW  Elec       q    Type
REMARK                         _______ _______ _______ _____ _____    ______ ____
ROOT
ATOM      1  C   UNL     1     112.955  76.092  81.105  0.00  0.00    +0.000 C 
ENDROOT
BRANCH   1   5
ATOM      2  C   UNL     1     111.928  75.145  85.318  0.00  0.00    +0.000 C 
ATOM      3  C   UNL     1     113.076  75.481  84.326  0.00  0.00    +0.000 C 
ATOM      4  C   UNL     1     111.962  75.994  83.438  0.00  0.00    +0.000 C 
ATOM      5  C   UNL     1     111.858  76.243  82.124  0.00  0.00    +0.000 C 
ATOM      6  C   UNL     1     111.000  76.158  84.598  0.00  0.00    +0.000 C 
BRANCH   2   7
ATOM      7  O   UNL     1     112.192  75.414  86.713  0.00  0.00    +0.000 OA
ATOM      8  H   UNL     1     112.951  74.849  86.936  0.00  0.00    +0.000 HD
ENDBRANCH   2   7
ENDBRANCH   1   5
BRANCH   1   9
ATOM      9  O   UNL     1     112.942  77.265  80.290  0.00  0.00    +0.000 OA
ATOM     10  H   UNL     1     112.123  77.751  80.481  0.00  0.00    +0.000 HD
ENDBRANCH   1   9
BRANCH   1  11
ATOM     11  C   UNL     1     112.767  74.837  80.232  0.00  0.00    +0.000 C 
BRANCH  11  12
ATOM     12  C   UNL     1     113.217  75.063  78.808  0.00  0.00    +0.000 C 
ATOM     13  C   UNL     1     112.869  74.340  77.728  0.00  0.00    +0.000 C 
ATOM     14  C   UNL     1     111.907  73.180  77.709  0.00  0.00    +0.000 C 
ATOM     15  C   UNL     1     111.442  73.076  76.255  0.00  0.00    +0.000 C 
ATOM     16  C   UNL     1     112.009  74.298  75.545  0.00  0.00    +0.000 C 
ATOM     17  C   UNL     1     113.285  74.622  76.306  0.00  0.00    +0.000 C 
BRANCH  17  18
ATOM     18  O   UNL     1     113.676  75.963  76.088  0.00  0.00    +0.000 OA
ATOM     19  H   UNL     1     114.174  75.983  75.256  0.00  0.00    +0.000 HD
ENDBRANCH  17  18
ENDBRANCH  11  12
ENDBRANCH   1  11
TORSDOF 6
ENDMDL
MODEL 8
REMARK VINA RESULT:      -5.6     22.971     24.967
REMARK  Name = 
REMARK  6 active torsions:
REMARK  status: ('A' for Active; 'I' for Inactive)
REMARK    1  A    between atoms: O_1  and  C_2
REMARK    2  A    between atoms: C_5  and  C_6
REMARK    3  A    between atoms: C_6  and  O_7
REMARK    4  A    between atoms: C_6  and  C_8
REMARK    5  A    between atoms: C_8  and  C_9
REMARK    6  A    between atoms: C_14  and  O_15
REMARK                            x       y       z     vdW  Elec       q    Type
REMARK                         _______ _______ _______ _____ _____    ______ ____
ROOT
ATOM      1  C   UNL     1     112.827  72.118  74.917  0.00  0.00    +0.000 C 
ENDROOT
BRANCH   1   5
ATOM      2  C   UNL     1     110.092  72.771  78.352  0.00  0.00    +0.000 C 
ATOM      3  C   UNL     1     110.321  73.017  76.835  0.00  0.00    +0.000 C 
ATOM      4  C   UNL     1     111.330  71.894  76.953  0.00  0.00    +0.000 C 
ATOM      5  C   UNL     1     112.374  71.497  76.211  0.00  0.00    +0.000 C 
ATOM      6  C   UNL     1     110.699  71.349  78.220  0.00  0.00    +0.000 C 
BRANCH   2   7
ATOM      7  O   UNL     1     108.722  72.831  78.808  0.00  0.00    +0.000 OA
ATOM      8  H   UNL     1     108.674  73.641  79.342  0.00  0.00    +0.000 HD
ENDBRANCH   2   7
ENDBRANCH   1   5
BRANCH   1   9
ATOM      9  O   UNL     1     113.707  71.187  74.285  0.00  0.00    +0.000 OA
ATOM     10  H   UNL     1     114.069  70.605  74.973  0.00  0.00    +0.000 HD
ENDBRANCH   1   9
BRANCH   1  11
ATOM     11  C   UNL     1     113.546  73.461  75.139  0.00  0.00    +0.000 C 
BRANCH  11  12
ATOM     12  C   UNL     1     112.830  74.607  74.463  0.00  0.00    +0.000 C 
ATOM     13  C   UNL     1     112.954  75.916  74.748  0.00  0.00    +0.000 C 
ATOM     14  C   UNL     1     113.885  76.517  75.770  0.00  0.00    +0.000 C 
ATOM     15  C   UNL     1     114.057  77.975  75.339  0.00  0.00    +0.000 C 
ATOM     16  C   UNL     1     113.374  78.095  73.983  0.00  0.00    +0.000 C 
ATOM     17  C   UNL     1     112.272  77.046  74.019  0.00  0.00    +0.000 C 
BRANCH  17  18
ATOM     18  O   UNL     1     111.858  76.706  72.711  0.00  0.00    +0.000 OA
ATOM     19  H   UNL     1     111.302  77.432  72.390  0.00  0.00    +0.000 HD
ENDBRANCH  17  18
ENDBRANCH  11  12
ENDBRANCH   1  11
TORSDOF 6
ENDMDL
MODEL 9
REMARK VINA RESULT:      -5.5     17.672     19.621
REMARK  Name = 
REMARK  6 active torsions:
REMARK  status: ('A' for Active; 'I' for Inactive)
REMARK    1  A    between atoms: O_1  and  C_2
REMARK    2  A    between atoms: C_5  and  C_6
REMARK    3  A    between atoms: C_6  and  O_7
REMARK    4  A    between atoms: C_6  and  C_8
REMARK    5  A    between atoms: C_8  and  C_9
REMARK    6  A    between atoms: C_14  and  O_15
REMARK                            x       y       z     vdW  Elec       q    Type
REMARK                         _______ _______ _______ _____ _____    ______ ____
ROOT
ATOM      1  C   UNL     1     113.425  74.467  79.619  0.00  0.00    +0.000 C 
ENDROOT
BRANCH   1   5
ATOM      2  C   UNL     1     110.185  71.660  78.470  0.00  0.00    +0.000 C 
ATOM      3  C   UNL     1     110.729  72.598  79.582  0.00  0.00    +0.000 C 
ATOM      4  C   UNL     1     111.550  73.207  78.465  0.00  0.00    +0.000 C 
ATOM      5  C   UNL     1     112.661  73.958  78.428  0.00  0.00    +0.000 C 
ATOM      6  C   UNL     1     110.627  72.677  77.385  0.00  0.00    +0.000 C 
BRANCH   2   7
ATOM      7  O   UNL     1     108.771  71.365  78.519  0.00  0.00    +0.000 OA
ATOM      8  H   UNL     1     108.334  72.221  78.369  0.00  0.00    +0.000 HD
ENDBRANCH   2   7
ENDBRANCH   1   5
BRANCH   1   9
ATOM      9  O   UNL     1     113.924  73.328  80.321  0.00  0.00    +0.000 OA
ATOM     10  H   UNL     1     113.177  72.907  80.777  0.00  0.00    +0.000 HD
ENDBRANCH   1   9
BRANCH   1  11
ATOM     11  C   UNL     1     112.546  75.321  80.552  0.00  0.00    +0.000 C 
BRANCH  11  12
ATOM     12  C   UNL     1     112.975  75.211  81.996  0.00  0.00    +0.000 C 
ATOM     13  C   UNL     1     112.297  75.643  83.074  0.00  0.00    +0.000 C 
ATOM     14  C   UNL     1     110.931  76.281  83.066  0.00  0.00    +0.000 C 
ATOM     15  C   UNL     1     110.393  76.079  84.484  0.00  0.00    +0.000 C 
ATOM     16  C   UNL     1     111.391  75.168  85.186  0.00  0.00    +0.000 C 
ATOM     17  C   UNL     1     112.720  75.469  84.511  0.00  0.00    +0.000 C 
BRANCH  17  18
ATOM     18  O   UNL     1     113.636  74.410  84.705  0.00  0.00    +0.000 OA
ATOM     19  H   UNL     1     113.400  73.710  84.077  0.00  0.00    +0.000 HD
ENDBRANCH  17  18
ENDBRANCH  11  12
ENDBRANCH   1  11
TORSDOF 6
ENDMDL
