MODEL 1
REMARK VINA RESULT:      -7.1      0.000      0.000
REMARK  Name = 
REMARK  8 active torsions:
REMARK  status: ('A' for Active; 'I' for Inactive)
REMARK    1  A    between atoms: C_1  and  C_2
REMARK    2  A    between atoms: C_3  and  O_4
REMARK    3  A    between atoms: C_5  and  O_6
REMARK    4  A    between atoms: C_5  and  C_15
REMARK    5  A    between atoms: O_6  and  C_7
REMARK    6  A    between atoms: C_7  and  C_9
REMARK    7  A    between atoms: C_11  and  O_12
REMARK    8  A    between atoms: C_13  and  N_14
REMARK                            x       y       z     vdW  Elec       q    Type
REMARK                         _______ _______ _______ _____ _____    ______ ____
ROOT
ATOM      1  C   UNL     1     116.994  76.236  81.130  0.00  0.00    +0.000 C 
ATOM      2  C   UNL     1     115.507  75.786  80.796  0.00  0.00    +0.000 C 
ATOM      3  C   UNL     1     114.764  74.711  81.167  0.00  0.00    +0.000 C 
ATOM      4  C   UNL     1     113.060  74.986  81.073  0.00  0.00    +0.000 C 
ATOM      5  C   UNL     1     113.325  76.508  80.591  0.00  0.00    +0.000 C 
ATOM      6  O   UNL     1     114.727  76.764  80.185  0.00  0.00    +0.000 OA
ENDROOT
BRANCH   4   7
ATOM      7  C   UNL     1     111.740  73.900  80.228  0.00  0.00    +0.000 C 
ATOM      8  C   UNL     1     110.763  73.046  79.559  0.00  0.00    +0.000 C 
ATOM      9  C   UNL     1     110.368  71.914  78.249  0.00  0.00    +0.000 C 
ATOM     10  C   UNL     1     109.896  72.811  77.050  0.00  0.00    +0.000 C 
ATOM     11  C   UNL     1     111.300  72.791  76.417  0.00  0.00    +0.000 C 
ATOM     12  C   UNL     1     112.095  73.703  76.985  0.00  0.00    +0.000 C 
ATOM     13  C   UNL     1     113.087  73.121  77.960  0.00  0.00    +0.000 C 
ATOM     14  C   UNL     1     112.853  73.759  79.275  0.00  0.00    +0.000 C 
ENDBRANCH   4   7
BRANCH   3  15
ATOM     15  O   UNL     1     115.282  73.775  82.056  0.00  0.00    +0.000 OA
ATOM     16  H   UNL     1     116.241  73.702  81.868  0.00  0.00    +0.000 HD
ENDBRANCH   3  15
BRANCH   4  17
ATOM     17  O   UNL     1     112.655  75.026  82.477  0.00  0.00    +0.000 OA
BRANCH  17  18
ATOM     18  C   UNL     1     111.951  76.070  83.008  0.00  0.00    +0.000 C 
ATOM     19  O   UNL     1     110.844  76.487  82.669  0.00  0.00    +0.000 OA
BRANCH  18  20
ATOM     20  C   UNL     1     112.720  76.680  84.173  0.00  0.00    +0.000 C 
ATOM     21  C   UNL     1     114.107  77.290  83.858  0.00  0.00    +0.000 C 
ATOM     22  C   UNL     1     114.622  76.629  85.162  0.00  0.00    +0.000 C 
ATOM     23  C   UNL     1     113.454  75.634  85.045  0.00  0.00    +0.000 C 
BRANCH  23  24
ATOM     24  N   UNL     1     112.713  75.426  86.286  0.00  0.00    +0.000 NA
ATOM     25  H   UNL     1     113.253  75.492  87.145  0.00  0.00    +0.000 HD
ATOM     26  H   UNL     1     112.287  74.499  86.312  0.00  0.00    +0.000 HD
ENDBRANCH  23  24
BRANCH  22  27
ATOM     27  O   UNL     1     114.669  77.474  86.329  0.00  0.00    +0.000 OA
ATOM     28  H   UNL     1     114.307  76.933  87.051  0.00  0.00    +0.000 HD
ENDBRANCH  22  27
ENDBRANCH  18  20
ENDBRANCH  17  18
ENDBRANCH   4  17
TORSDOF 7
ENDMDL
MODEL 2
REMARK VINA RESULT:      -7.1      3.721      7.066
REMARK  Name = 
REMARK  8 active torsions:
REMARK  status: ('A' for Active; 'I' for Inactive)
REMARK    1  A    between atoms: C_1  and  C_2
REMARK    2  A    between atoms: C_3  and  O_4
REMARK    3  A    between atoms: C_5  and  O_6
REMARK    4  A    between atoms: C_5  and  C_15
REMARK    5  A    between atoms: O_6  and  C_7
REMARK    6  A    between atoms: C_7  and  C_9
REMARK    7  A    between atoms: C_11  and  O_12
REMARK    8  A    between atoms: C_13  and  N_14
REMARK                            x       y       z     vdW  Elec       q    Type
REMARK                         _______ _______ _______ _____ _____    ______ ____
ROOT
ATOM      1  C   UNL     1     115.363  70.596  79.393  0.00  0.00    +0.000 C 
ATOM      2  C   UNL     1     114.298  71.598  80.013  0.00  0.00    +0.000 C 
ATOM      3  C   UNL     1     114.089  72.931  79.863  0.00  0.00    +0.000 C 
ATOM      4  C   UNL     1     112.472  73.422  80.228  0.00  0.00    +0.000 C 
ATOM      5  C   UNL     1     112.068  71.885  80.534  0.00  0.00    +0.000 C 
ATOM      6  O   UNL     1     113.235  70.982  80.670  0.00  0.00    +0.000 OA
ENDROOT
BRANCH   4   7
ATOM      7  C   UNL     1     111.904  74.837  81.372  0.00  0.00    +0.000 C 
ATOM      8  C   UNL     1     111.504  75.912  82.277  0.00  0.00    +0.000 C 
ATOM      9  C   UNL     1     111.592  76.670  83.879  0.00  0.00    +0.000 C 
ATOM     10  C   UNL     1     110.452  75.998  84.724  0.00  0.00    +0.000 C 
ATOM     11  C   UNL     1     111.434  74.982  85.335  0.00  0.00    +0.000 C 
ATOM     12  C   UNL     1     111.637  73.953  84.507  0.00  0.00    +0.000 C 
ATOM     13  C   UNL     1     112.954  74.011  83.776  0.00  0.00    +0.000 C 
ATOM     14  C   UNL     1     112.665  74.012  82.325  0.00  0.00    +0.000 C 
ENDBRANCH   4   7
BRANCH   3  15
ATOM     15  O   UNL     1     114.868  73.666  78.975  0.00  0.00    +0.000 OA
ATOM     16  H   UNL     1     115.797  73.593  79.282  0.00  0.00    +0.000 HD
ENDBRANCH   3  15
BRANCH   4  17
ATOM     17  O   UNL     1     111.931  73.773  78.916  0.00  0.00    +0.000 OA
BRANCH  17  18
ATOM     18  C   UNL     1     110.796  73.201  78.414  0.00  0.00    +0.000 C 
ATOM     19  O   UNL     1     109.686  73.130  78.942  0.00  0.00    +0.000 OA
BRANCH  18  20
ATOM     20  C   UNL     1     111.059  72.660  77.014  0.00  0.00    +0.000 C 
ATOM     21  C   UNL     1     112.040  71.470  76.893  0.00  0.00    +0.000 C 
ATOM     22  C   UNL     1     112.643  72.177  75.653  0.00  0.00    +0.000 C 
ATOM     23  C   UNL     1     112.082  73.496  76.210  0.00  0.00    +0.000 C 
BRANCH  23  24
ATOM     24  N   UNL     1     111.378  74.315  75.226  0.00  0.00    +0.000 NA
ATOM     25  H   UNL     1     110.887  73.809  74.493  0.00  0.00    +0.000 HD
ATOM     26  H   UNL     1     112.020  74.937  74.734  0.00  0.00    +0.000 HD
ENDBRANCH  23  24
BRANCH  22  27
ATOM     27  O   UNL     1     112.162  71.732  74.369  0.00  0.00    +0.000 OA
ATOM     28  H   UNL     1     112.558  70.855  74.238  0.00  0.00    +0.000 HD
ENDBRANCH  22  27
ENDBRANCH  18  20
ENDBRANCH  17  18
ENDBRANCH   4  17
TORSDOF 7
ENDMDL
MODEL 3
REMARK VINA RESULT:      -6.9      2.077      2.869
REMARK  Name = 
REMARK  8 active torsions:
REMARK  status: ('A' for Active; 'I' for Inactive)
REMARK    1  A    between atoms: C_1  and  C_2
REMARK    2  A    between atoms: C_3  and  O_4
REMARK    3  A    between atoms: C_5  and  O_6
REMARK    4  A    between atoms: C_5  and  C_15
REMARK    5  A    between atoms: O_6  and  C_7
REMARK    6  A    between atoms: C_7  and  C_9
REMARK    7  A    between atoms: C_11  and  O_12
REMARK    8  A    between atoms: C_13  and  N_14
REMARK                            x       y       z     vdW  Elec       q    Type
REMARK                         _______ _______ _______ _____ _____    ______ ____
ROOT
ATOM      1  C   UNL     1     117.555  71.376  81.671  0.00  0.00    +0.000 C 
ATOM      2  C   UNL     1     116.097  71.881  81.288  0.00  0.00    +0.000 C 
ATOM      3  C   UNL     1     114.862  71.338  81.444  0.00  0.00    +0.000 C 
ATOM      4  C   UNL     1     113.590  72.508  81.452  0.00  0.00    +0.000 C 
ATOM      5  C   UNL     1     114.675  73.698  81.293  0.00  0.00    +0.000 C 
ATOM      6  O   UNL     1     116.026  73.220  80.915  0.00  0.00    +0.000 OA
ENDROOT
BRANCH   4   7
ATOM      7  C   UNL     1     111.979  72.499  80.433  0.00  0.00    +0.000 C 
ATOM      8  C   UNL     1     110.762  72.457  79.627  0.00  0.00    +0.000 C 
ATOM      9  C   UNL     1     109.927  71.935  78.150  0.00  0.00    +0.000 C 
ATOM     10  C   UNL     1     110.172  73.078  77.104  0.00  0.00    +0.000 C 
ATOM     11  C   UNL     1     111.369  72.330  76.490  0.00  0.00    +0.000 C 
ATOM     12  C   UNL     1     112.480  72.536  77.203  0.00  0.00    +0.000 C 
ATOM     13  C   UNL     1     112.862  71.373  78.083  0.00  0.00    +0.000 C 
ATOM     14  C   UNL     1     112.903  71.859  79.481  0.00  0.00    +0.000 C 
ENDBRANCH   4   7
BRANCH   3  15
ATOM     15  O   UNL     1     114.711  70.122  82.104  0.00  0.00    +0.000 OA
ATOM     16  H   UNL     1     113.771  69.860  82.010  0.00  0.00    +0.000 HD
ENDBRANCH   3  15
BRANCH   4  17
ATOM     17  O   UNL     1     113.142  72.495  82.844  0.00  0.00    +0.000 OA
BRANCH  17  18
ATOM     18  C   UNL     1     113.525  73.448  83.746  0.00  0.00    +0.000 C 
ATOM     19  O   UNL     1     114.647  73.642  84.213  0.00  0.00    +0.000 OA
BRANCH  18  20
ATOM     20  C   UNL     1     112.339  74.334  84.105  0.00  0.00    +0.000 C 
ATOM     21  C   UNL     1     111.828  75.303  83.012  0.00  0.00    +0.000 C 
ATOM     22  C   UNL     1     111.692  76.378  84.120  0.00  0.00    +0.000 C 
ATOM     23  C   UNL     1     112.727  75.581  84.933  0.00  0.00    +0.000 C 
BRANCH  23  24
ATOM     24  N   UNL     1     112.362  75.372  86.333  0.00  0.00    +0.000 NA
ATOM     25  H   UNL     1     113.126  75.402  87.003  0.00  0.00    +0.000 HD
ATOM     26  H   UNL     1     111.925  74.460  86.470  0.00  0.00    +0.000 HD
ENDBRANCH  23  24
BRANCH  22  27
ATOM     27  O   UNL     1     110.378  76.545  84.688  0.00  0.00    +0.000 OA
ATOM     28  H   UNL     1     110.102  75.655  84.962  0.00  0.00    +0.000 HD
ENDBRANCH  22  27
ENDBRANCH  18  20
ENDBRANCH  17  18
ENDBRANCH   4  17
TORSDOF 7
ENDMDL
MODEL 4
REMARK VINA RESULT:      -6.7      2.308      3.732
REMARK  Name = 
REMARK  8 active torsions:
REMARK  status: ('A' for Active; 'I' for Inactive)
REMARK    1  A    between atoms: C_1  and  C_2
REMARK    2  A    between atoms: C_3  and  O_4
REMARK    3  A    between atoms: C_5  and  O_6
REMARK    4  A    between atoms: C_5  and  C_15
REMARK    5  A    between atoms: O_6  and  C_7
REMARK    6  A    between atoms: C_7  and  C_9
REMARK    7  A    between atoms: C_11  and  O_12
REMARK    8  A    between atoms: C_13  and  N_14
REMARK                            x       y       z     vdW  Elec       q    Type
REMARK                         _______ _______ _______ _____ _____    ______ ____
ROOT
ATOM      1  C   UNL     1     112.448  71.695  82.015  0.00  0.00    +0.000 C 
ATOM      2  C   UNL     1     113.048  72.940  81.231  0.00  0.00    +0.000 C 
ATOM      3  C   UNL     1     112.488  74.068  80.724  0.00  0.00    +0.000 C 
ATOM      4  C   UNL     1     113.608  75.371  80.535  0.00  0.00    +0.000 C 
ATOM      5  C   UNL     1     114.789  74.453  81.154  0.00  0.00    +0.000 C 
ATOM      6  O   UNL     1     114.439  73.015  81.237  0.00  0.00    +0.000 OA
ENDROOT
BRANCH   4   7
ATOM      7  C   UNL     1     113.905  76.452  78.994  0.00  0.00    +0.000 C 
ATOM      8  C   UNL     1     114.101  77.254  77.789  0.00  0.00    +0.000 C 
ATOM      9  C   UNL     1     113.932  77.435  76.031  0.00  0.00    +0.000 C 
ATOM     10  C   UNL     1     115.237  76.815  75.418  0.00  0.00    +0.000 C 
ATOM     11  C   UNL     1     114.543  75.463  75.177  0.00  0.00    +0.000 C 
ATOM     12  C   UNL     1     114.533  74.723  76.291  0.00  0.00    +0.000 C 
ATOM     13  C   UNL     1     113.199  74.701  76.993  0.00  0.00    +0.000 C 
ATOM     14  C   UNL     1     113.401  75.219  78.364  0.00  0.00    +0.000 C 
ENDBRANCH   4   7
BRANCH   3  15
ATOM     15  O   UNL     1     111.133  74.322  80.913  0.00  0.00    +0.000 OA
ATOM     16  H   UNL     1     110.645  73.762  80.272  0.00  0.00    +0.000 HD
ENDBRANCH   3  15
BRANCH   4  17
ATOM     17  O   UNL     1     113.190  76.316  81.569  0.00  0.00    +0.000 OA
BRANCH  17  18
ATOM     18  C   UNL     1     114.070  76.867  82.458  0.00  0.00    +0.000 C 
ATOM     19  O   UNL     1     115.074  77.537  82.215  0.00  0.00    +0.000 OA
BRANCH  18  20
ATOM     20  C   UNL     1     113.620  76.579  83.885  0.00  0.00    +0.000 C 
ATOM     21  C   UNL     1     114.265  75.364  84.594  0.00  0.00    +0.000 C 
ATOM     22  C   UNL     1     112.856  75.017  85.139  0.00  0.00    +0.000 C 
ATOM     23  C   UNL     1     112.272  75.826  83.968  0.00  0.00    +0.000 C 
BRANCH  23  24
ATOM     24  N   UNL     1     111.214  76.758  84.349  0.00  0.00    +0.000 NA
ATOM     25  H   UNL     1     110.377  76.743  83.772  0.00  0.00    +0.000 HD
ATOM     26  H   UNL     1     111.541  77.725  84.315  0.00  0.00    +0.000 HD
ENDBRANCH  23  24
BRANCH  22  27
ATOM     27  O   UNL     1     112.563  75.467  86.477  0.00  0.00    +0.000 OA
ATOM     28  H   UNL     1     111.594  75.486  86.534  0.00  0.00    +0.000 HD
ENDBRANCH  22  27
ENDBRANCH  18  20
ENDBRANCH  17  18
ENDBRANCH   4  17
TORSDOF 7
ENDMDL
MODEL 5
REMARK VINA RESULT:      -6.7      1.728      2.149
REMARK  Name = 
REMARK  8 active torsions:
REMARK  status: ('A' for Active; 'I' for Inactive)
REMARK    1  A    between atoms: C_1  and  C_2
REMARK    2  A    between atoms: C_3  and  O_4
REMARK    3  A    between atoms: C_5  and  O_6
REMARK    4  A    between atoms: C_5  and  C_15
REMARK    5  A    between atoms: O_6  and  C_7
REMARK    6  A    between atoms: C_7  and  C_9
REMARK    7  A    between atoms: C_11  and  O_12
REMARK    8  A    between atoms: C_13  and  N_14
REMARK                            x       y       z     vdW  Elec       q    Type
REMARK                         _______ _______ _______ _____ _____    ______ ____
ROOT
ATOM      1  C   UNL     1     116.893  77.630  78.676  0.00  0.00    +0.000 C 
ATOM      2  C   UNL     1     115.546  76.855  79.005  0.00  0.00    +0.000 C 
ATOM      3  C   UNL     1     115.290  75.641  79.558  0.00  0.00    +0.000 C 
ATOM      4  C   UNL     1     113.721  75.524  80.272  0.00  0.00    +0.000 C 
ATOM      5  C   UNL     1     113.422  77.067  79.883  0.00  0.00    +0.000 C 
ATOM      6  O   UNL     1     114.393  77.632  78.917  0.00  0.00    +0.000 OA
ENDROOT
BRANCH   4   7
ATOM      7  C   UNL     1     112.407  74.168  80.007  0.00  0.00    +0.000 C 
ATOM      8  C   UNL     1     111.431  73.108  79.774  0.00  0.00    +0.000 C 
ATOM      9  C   UNL     1     110.848  71.761  78.775  0.00  0.00    +0.000 C 
ATOM     10  C   UNL     1     109.888  72.410  77.716  0.00  0.00    +0.000 C 
ATOM     11  C   UNL     1     111.011  72.483  76.667  0.00  0.00    +0.000 C 
ATOM     12  C   UNL     1     111.777  73.562  76.858  0.00  0.00    +0.000 C 
ATOM     13  C   UNL     1     113.104  73.258  77.506  0.00  0.00    +0.000 C 
ATOM     14  C   UNL     1     113.182  74.039  78.761  0.00  0.00    +0.000 C 
ENDBRANCH   4   7
BRANCH   3  15
ATOM     15  O   UNL     1     116.337  74.847  80.016  0.00  0.00    +0.000 OA
ATOM     16  H   UNL     1     115.991  73.933  80.092  0.00  0.00    +0.000 HD
ENDBRANCH   3  15
BRANCH   4  17
ATOM     17  O   UNL     1     114.013  75.474  81.703  0.00  0.00    +0.000 OA
BRANCH  17  18
ATOM     18  C   UNL     1     114.123  76.601  82.469  0.00  0.00    +0.000 C 
ATOM     19  O   UNL     1     114.968  77.492  82.390  0.00  0.00    +0.000 OA
BRANCH  18  20
ATOM     20  C   UNL     1     112.981  76.661  83.476  0.00  0.00    +0.000 C 
ATOM     21  C   UNL     1     113.238  76.041  84.870  0.00  0.00    +0.000 C 
ATOM     22  C   UNL     1     111.813  75.436  84.792  0.00  0.00    +0.000 C 
ATOM     23  C   UNL     1     111.909  75.567  83.262  0.00  0.00    +0.000 C 
BRANCH  23  24
ATOM     24  N   UNL     1     110.729  76.155  82.632  0.00  0.00    +0.000 NA
ATOM     25  H   UNL     1     110.262  76.890  83.157  0.00  0.00    +0.000 HD
ATOM     26  H   UNL     1     110.009  75.451  82.465  0.00  0.00    +0.000 HD
ENDBRANCH  23  24
BRANCH  22  27
ATOM     27  O   UNL     1     110.771  76.171  85.464  0.00  0.00    +0.000 OA
ATOM     28  H   UNL     1     111.012  76.154  86.405  0.00  0.00    +0.000 HD
ENDBRANCH  22  27
ENDBRANCH  18  20
ENDBRANCH  17  18
ENDBRANCH   4  17
TORSDOF 7
ENDMDL
MODEL 6
REMARK VINA RESULT:      -6.6      5.609      8.400
REMARK  Name = 
REMARK  8 active torsions:
REMARK  status: ('A' for Active; 'I' for Inactive)
REMARK    1  A    between atoms: C_1  and  C_2
REMARK    2  A    between atoms: C_3  and  O_4
REMARK    3  A    between atoms: C_5  and  O_6
REMARK    4  A    between atoms: C_5  and  C_15
REMARK    5  A    between atoms: O_6  and  C_7
REMARK    6  A    between atoms: C_7  and  C_9
REMARK    7  A    between atoms: C_11  and  O_12
REMARK    8  A    between atoms: C_13  and  N_14
REMARK                            x       y       z     vdW  Elec       q    Type
REMARK                         _______ _______ _______ _____ _____    ______ ____
ROOT
ATOM      1  C   UNL     1     116.784  76.769  74.978  0.00  0.00    +0.000 C 
ATOM      2  C   UNL     1     115.453  75.905  75.053  0.00  0.00    +0.000 C 
ATOM      3  C   UNL     1     114.238  76.129  75.619  0.00  0.00    +0.000 C 
ATOM      4  C   UNL     1     112.964  75.205  74.905  0.00  0.00    +0.000 C 
ATOM      5  C   UNL     1     114.011  74.565  73.850  0.00  0.00    +0.000 C 
ATOM      6  O   UNL     1     115.429  74.800  74.208  0.00  0.00    +0.000 OA
ENDROOT
BRANCH   4   7
ATOM      7  C   UNL     1     111.662  74.124  75.783  0.00  0.00    +0.000 C 
ATOM      8  C   UNL     1     110.680  73.313  76.496  0.00  0.00    +0.000 C 
ATOM      9  C   UNL     1     110.113  72.586  78.013  0.00  0.00    +0.000 C 
ATOM     10  C   UNL     1     110.823  71.189  78.099  0.00  0.00    +0.000 C 
ATOM     11  C   UNL     1     111.945  71.757  78.986  0.00  0.00    +0.000 C 
ATOM     12  C   UNL     1     112.883  72.358  78.248  0.00  0.00    +0.000 C 
ATOM     13  C   UNL     1     112.803  73.864  78.272  0.00  0.00    +0.000 C 
ATOM     14  C   UNL     1     112.624  74.329  76.879  0.00  0.00    +0.000 C 
ENDBRANCH   4   7
BRANCH   3  15
ATOM     15  O   UNL     1     113.970  77.344  76.241  0.00  0.00    +0.000 OA
ATOM     16  H   UNL     1     113.778  77.993  75.531  0.00  0.00    +0.000 HD
ENDBRANCH   3  15
BRANCH   4  17
ATOM     17  O   UNL     1     112.181  76.217  74.198  0.00  0.00    +0.000 OA
BRANCH  17  18
ATOM     18  C   UNL     1     112.012  76.199  72.842  0.00  0.00    +0.000 C 
ATOM     19  O   UNL     1     111.660  75.256  72.135  0.00  0.00    +0.000 OA
BRANCH  18  20
ATOM     20  C   UNL     1     112.286  77.582  72.263  0.00  0.00    +0.000 C 
ATOM     21  C   UNL     1     112.976  77.640  70.878  0.00  0.00    +0.000 C 
ATOM     22  C   UNL     1     113.848  78.794  71.435  0.00  0.00    +0.000 C 
ATOM     23  C   UNL     1     113.550  78.257  72.845  0.00  0.00    +0.000 C 
BRANCH  23  24
ATOM     24  N   UNL     1     113.156  79.281  73.810  0.00  0.00    +0.000 NA
ATOM     25  H   UNL     1     113.684  80.150  73.779  0.00  0.00    +0.000 HD
ATOM     26  H   UNL     1     113.256  78.945  74.768  0.00  0.00    +0.000 HD
ENDBRANCH  23  24
BRANCH  22  27
ATOM     27  O   UNL     1     113.412  80.132  71.120  0.00  0.00    +0.000 OA
ATOM     28  H   UNL     1     112.694  80.320  71.747  0.00  0.00    +0.000 HD
ENDBRANCH  22  27
ENDBRANCH  18  20
ENDBRANCH  17  18
ENDBRANCH   4  17
TORSDOF 7
ENDMDL
MODEL 7
REMARK VINA RESULT:      -6.4      2.959      6.375
REMARK  Name = 
REMARK  8 active torsions:
REMARK  status: ('A' for Active; 'I' for Inactive)
REMARK    1  A    between atoms: C_1  and  C_2
REMARK    2  A    between atoms: C_3  and  O_4
REMARK    3  A    between atoms: C_5  and  O_6
REMARK    4  A    between atoms: C_5  and  C_15
REMARK    5  A    between atoms: O_6  and  C_7
REMARK    6  A    between atoms: C_7  and  C_9
REMARK    7  A    between atoms: C_11  and  O_12
REMARK    8  A    between atoms: C_13  and  N_14
REMARK                            x       y       z     vdW  Elec       q    Type
REMARK                         _______ _______ _______ _____ _____    ______ ____
ROOT
ATOM      1  C   UNL     1     117.633  76.287  79.408  0.00  0.00    +0.000 C 
ATOM      2  C   UNL     1     116.249  75.883  80.074  0.00  0.00    +0.000 C 
ATOM      3  C   UNL     1     115.012  76.443  80.045  0.00  0.00    +0.000 C 
ATOM      4  C   UNL     1     113.739  75.324  80.384  0.00  0.00    +0.000 C 
ATOM      5  C   UNL     1     114.820  74.127  80.522  0.00  0.00    +0.000 C 
ATOM      6  O   UNL     1     116.220  74.603  80.621  0.00  0.00    +0.000 OA
ENDROOT
BRANCH   4   7
ATOM      7  C   UNL     1     112.311  75.511  81.633  0.00  0.00    +0.000 C 
ATOM      8  C   UNL     1     111.243  75.686  82.613  0.00  0.00    +0.000 C 
ATOM      9  C   UNL     1     110.721  76.225  84.222  0.00  0.00    +0.000 C 
ATOM     10  C   UNL     1     110.917  74.985  85.164  0.00  0.00    +0.000 C 
ATOM     11  C   UNL     1     112.296  75.490  85.626  0.00  0.00    +0.000 C 
ATOM     12  C   UNL     1     113.247  75.164  84.745  0.00  0.00    +0.000 C 
ATOM     13  C   UNL     1     113.689  76.313  83.875  0.00  0.00    +0.000 C 
ATOM     14  C   UNL     1     113.452  75.928  82.465  0.00  0.00    +0.000 C 
ENDBRANCH   4   7
BRANCH   3  15
ATOM     15  O   UNL     1     114.773  77.571  79.266  0.00  0.00    +0.000 OA
ATOM     16  H   UNL     1     115.134  78.339  79.758  0.00  0.00    +0.000 HD
ENDBRANCH   3  15
BRANCH   4  17
ATOM     17  O   UNL     1     113.075  75.178  79.090  0.00  0.00    +0.000 OA
BRANCH  17  18
ATOM     18  C   UNL     1     112.890  73.962  78.493  0.00  0.00    +0.000 C 
ATOM     19  O   UNL     1     113.739  73.231  77.985  0.00  0.00    +0.000 OA
BRANCH  18  20
ATOM     20  C   UNL     1     111.422  73.562  78.569  0.00  0.00    +0.000 C 
ATOM     21  C   UNL     1     111.045  72.461  79.589  0.00  0.00    +0.000 C 
ATOM     22  C   UNL     1     110.123  71.857  78.499  0.00  0.00    +0.000 C 
ATOM     23  C   UNL     1     110.990  72.581  77.454  0.00  0.00    +0.000 C 
BRANCH  23  24
ATOM     24  N   UNL     1     110.231  73.301  76.436  0.00  0.00    +0.000 NA
ATOM     25  H   UNL     1     110.619  74.192  76.136  0.00  0.00    +0.000 HD
ATOM     26  H   UNL     1     109.288  73.519  76.760  0.00  0.00    +0.000 HD
ENDBRANCH  23  24
BRANCH  22  27
ATOM     27  O   UNL     1     108.728  72.213  78.576  0.00  0.00    +0.000 OA
ATOM     28  H   UNL     1     108.302  71.477  79.045  0.00  0.00    +0.000 HD
ENDBRANCH  22  27
ENDBRANCH  18  20
ENDBRANCH  17  18
ENDBRANCH   4  17
TORSDOF 7
ENDMDL
MODEL 8
REMARK VINA RESULT:      -6.4      5.282      7.493
REMARK  Name = 
REMARK  8 active torsions:
REMARK  status: ('A' for Active; 'I' for Inactive)
REMARK    1  A    between atoms: C_1  and  C_2
REMARK    2  A    between atoms: C_3  and  O_4
REMARK    3  A    between atoms: C_5  and  O_6
REMARK    4  A    between atoms: C_5  and  C_15
REMARK    5  A    between atoms: O_6  and  C_7
REMARK    6  A    between atoms: C_7  and  C_9
REMARK    7  A    between atoms: C_11  and  O_12
REMARK    8  A    between atoms: C_13  and  N_14
REMARK                            x       y       z     vdW  Elec       q    Type
REMARK                         _______ _______ _______ _____ _____    ______ ____
ROOT
ATOM      1  C   UNL     1     117.185  78.089  77.445  0.00  0.00    +0.000 C 
ATOM      2  C   UNL     1     116.088  77.103  76.857  0.00  0.00    +0.000 C 
ATOM      3  C   UNL     1     114.746  76.999  77.042  0.00  0.00    +0.000 C 
ATOM      4  C   UNL     1     113.928  76.213  75.738  0.00  0.00    +0.000 C 
ATOM      5  C   UNL     1     115.329  76.061  74.943  0.00  0.00    +0.000 C 
ATOM      6  O   UNL     1     116.519  76.327  75.784  0.00  0.00    +0.000 OA
ENDROOT
BRANCH   4   7
ATOM      7  C   UNL     1     112.685  74.771  75.830  0.00  0.00    +0.000 C 
ATOM      8  C   UNL     1     111.728  73.674  75.947  0.00  0.00    +0.000 C 
ATOM      9  C   UNL     1     110.884  72.486  76.961  0.00  0.00    +0.000 C 
ATOM     10  C   UNL     1     111.816  71.224  76.994  0.00  0.00    +0.000 C 
ATOM     11  C   UNL     1     112.448  71.663  78.327  0.00  0.00    +0.000 C 
ATOM     12  C   UNL     1     113.417  72.562  78.126  0.00  0.00    +0.000 C 
ATOM     13  C   UNL     1     113.007  73.978  78.444  0.00  0.00    +0.000 C 
ATOM     14  C   UNL     1     113.182  74.786  77.216  0.00  0.00    +0.000 C 
ENDBRANCH   4   7
BRANCH   3  15
ATOM     15  O   UNL     1     114.078  77.917  77.846  0.00  0.00    +0.000 OA
ATOM     16  H   UNL     1     114.315  78.811  77.519  0.00  0.00    +0.000 HD
ENDBRANCH   3  15
BRANCH   4  17
ATOM     17  O   UNL     1     113.178  77.303  75.116  0.00  0.00    +0.000 OA
BRANCH  17  18
ATOM     18  C   UNL     1     113.427  77.731  73.842  0.00  0.00    +0.000 C 
ATOM     19  O   UNL     1     113.502  77.054  72.817  0.00  0.00    +0.000 OA
BRANCH  18  20
ATOM     20  C   UNL     1     113.569  79.248  73.819  0.00  0.00    +0.000 C 
ATOM     21  C   UNL     1     114.148  79.880  72.531  0.00  0.00    +0.000 C 
ATOM     22  C   UNL     1     114.985  80.813  73.443  0.00  0.00    +0.000 C 
ATOM     23  C   UNL     1     114.827  79.763  74.556  0.00  0.00    +0.000 C 
BRANCH  23  24
ATOM     24  N   UNL     1     114.442  80.313  75.854  0.00  0.00    +0.000 NA
ATOM     25  H   UNL     1     115.173  80.344  76.560  0.00  0.00    +0.000 HD
ATOM     26  H   UNL     1     113.688  79.771  76.277  0.00  0.00    +0.000 HD
ENDBRANCH  23  24
BRANCH  22  27
ATOM     27  O   UNL     1     114.442  82.127  73.679  0.00  0.00    +0.000 OA
ATOM     28  H   UNL     1     114.345  82.195  74.643  0.00  0.00    +0.000 HD
ENDBRANCH  22  27
ENDBRANCH  18  20
ENDBRANCH  17  18
ENDBRANCH   4  17
TORSDOF 7
ENDMDL
MODEL 9
REMARK VINA RESULT:      -6.3      4.670      7.619
REMARK  Name = 
REMARK  8 active torsions:
REMARK  status: ('A' for Active; 'I' for Inactive)
REMARK    1  A    between atoms: C_1  and  C_2
REMARK    2  A    between atoms: C_3  and  O_4
REMARK    3  A    between atoms: C_5  and  O_6
REMARK    4  A    between atoms: C_5  and  C_15
REMARK    5  A    between atoms: O_6  and  C_7
REMARK    6  A    between atoms: C_7  and  C_9
REMARK    7  A    between atoms: C_11  and  O_12
REMARK    8  A    between atoms: C_13  and  N_14
REMARK                            x       y       z     vdW  Elec       q    Type
REMARK                         _______ _______ _______ _____ _____    ______ ____
ROOT
ATOM      1  C   UNL     1     117.130  77.525  78.558  0.00  0.00    +0.000 C 
ATOM      2  C   UNL     1     116.067  76.527  77.926  0.00  0.00    +0.000 C 
ATOM      3  C   UNL     1     114.713  76.562  77.829  0.00  0.00    +0.000 C 
ATOM      4  C   UNL     1     114.088  75.601  76.536  0.00  0.00    +0.000 C 
ATOM      5  C   UNL     1     115.593  75.193  76.104  0.00  0.00    +0.000 C 
ATOM      6  O   UNL     1     116.613  75.528  77.125  0.00  0.00    +0.000 OA
ENDROOT
BRANCH   4   7
ATOM      7  C   UNL     1     112.695  74.301  76.604  0.00  0.00    +0.000 C 
ATOM      8  C   UNL     1     111.618  73.320  76.700  0.00  0.00    +0.000 C 
ATOM      9  C   UNL     1     110.479  72.395  77.700  0.00  0.00    +0.000 C 
ATOM     10  C   UNL     1     111.246  71.086  78.105  0.00  0.00    +0.000 C 
ATOM     11  C   UNL     1     111.676  71.693  79.452  0.00  0.00    +0.000 C 
ATOM     12  C   UNL     1     112.758  72.464  79.307  0.00  0.00    +0.000 C 
ATOM     13  C   UNL     1     112.459  73.941  79.321  0.00  0.00    +0.000 C 
ATOM     14  C   UNL     1     112.937  74.511  78.042  0.00  0.00    +0.000 C 
ENDBRANCH   4   7
BRANCH   3  15
ATOM     15  O   UNL     1     114.006  77.666  78.297  0.00  0.00    +0.000 OA
ATOM     16  H   UNL     1     114.657  78.265  78.719  0.00  0.00    +0.000 HD
ENDBRANCH   3  15
BRANCH   4  17
ATOM     17  O   UNL     1     113.606  76.602  75.586  0.00  0.00    +0.000 OA
BRANCH  17  18
ATOM     18  C   UNL     1     114.070  76.677  74.302  0.00  0.00    +0.000 C 
ATOM     19  O   UNL     1     115.103  77.212  73.900  0.00  0.00    +0.000 OA
BRANCH  18  20
ATOM     20  C   UNL     1     113.126  75.939  73.361  0.00  0.00    +0.000 C 
ATOM     21  C   UNL     1     113.230  76.274  71.854  0.00  0.00    +0.000 C 
ATOM     22  C   UNL     1     111.681  76.262  71.811  0.00  0.00    +0.000 C 
ATOM     23  C   UNL     1     111.699  76.532  73.326  0.00  0.00    +0.000 C 
BRANCH  23  24
ATOM     24  N   UNL     1     110.796  75.684  74.100  0.00  0.00    +0.000 NA
ATOM     25  H   UNL     1     110.750  75.875  75.098  0.00  0.00    +0.000 HD
ATOM     26  H   UNL     1     111.062  74.701  74.032  0.00  0.00    +0.000 HD
ENDBRANCH  23  24
BRANCH  22  27
ATOM     27  O   UNL     1     111.066  75.040  71.355  0.00  0.00    +0.000 OA
ATOM     28  H   UNL     1     110.113  75.166  71.493  0.00  0.00    +0.000 HD
ENDBRANCH  22  27
ENDBRANCH  18  20
ENDBRANCH  17  18
ENDBRANCH   4  17
TORSDOF 7
ENDMDL
