MODEL 1
REMARK VINA RESULT:      -6.3      0.000      0.000
REMARK  Name = 
REMARK  20 active torsions:
REMARK  status: ('A' for Active; 'I' for Inactive)
REMARK    1  A    between atoms: C_1  and  C_2
REMARK    2  A    between atoms: C_2  and  C_3
REMARK    3  A    between atoms: C_7  and  O_8
REMARK    4  A    between atoms: C_7  and  C_20
REMARK    5  A    between atoms: O_8  and  C_9
REMARK    6  A    between atoms: C_9  and  C_11
REMARK    7  A    between atoms: C_11  and  O_12
REMARK    8  A    between atoms: O_12  and  C_13
REMARK    9  A    between atoms: C_18  and  O_19
REMARK   10  A    between atoms: C_20  and  O_22
REMARK   11  A    between atoms: O_22  and  C_23
REMARK   12  A    between atoms: C_28  and  N_29
REMARK   13  A    between atoms: C_30  and  C_32
REMARK   14  A    between atoms: C_32  and  N_33
REMARK   15  A    between atoms: C_32  and  C_34
REMARK   16  A    between atoms: C_34  and  C_35
REMARK   17  A    between atoms: C_35  and  O_36
REMARK   18  A    between atoms: O_36  and  C_37
REMARK   19  A    between atoms: C_37  and  C_38
REMARK   20  A    between atoms: C_38  and  O_39
REMARK                            x       y       z     vdW  Elec       q    Type
REMARK                         _______ _______ _______ _____ _____    ______ ____
ROOT
ATOM      1  C   UNL     1     113.841  78.384  73.246  0.00  0.00    +0.000 C 
ATOM      2  O   UNL     1     112.936  79.178  73.474  0.00  0.00    +0.000 OA
ENDROOT
BRANCH   1   7
ATOM      3  C   UNL     1     113.337  75.905  73.022  0.00  0.00    +0.000 C 
ATOM      4  C   UNL     1     113.990  74.608  73.528  0.00  0.00    +0.000 C 
ATOM      5  C   UNL     1     115.407  75.012  73.929  0.00  0.00    +0.000 C 
ATOM      6  C   UNL     1     115.438  76.542  73.885  0.00  0.00    +0.000 C 
ATOM      7  C   UNL     1     113.968  77.007  73.950  0.00  0.00    +0.000 C 
BRANCH   3   9
ATOM      8  C   UNL     1     111.178  75.762  71.655  0.00  0.00    +0.000 C 
ATOM      9  C   UNL     1     111.800  75.855  73.042  0.00  0.00    +0.000 C 
ENDBRANCH   3   9
BRANCH   7  10
ATOM     10  O   UNL     1     113.393  76.745  75.250  0.00  0.00    +0.000 OA
BRANCH  10  11
ATOM     11  C   UNL     1     114.040  77.041  76.405  0.00  0.00    +0.000 C 
ATOM     12  O   UNL     1     114.395  78.161  76.745  0.00  0.00    +0.000 OA
BRANCH  11  13
ATOM     13  C   UNL     1     114.124  75.822  77.346  0.00  0.00    +0.000 C 
BRANCH  13  14
ATOM     14  O   UNL     1     112.975  74.994  77.424  0.00  0.00    +0.000 OA
BRANCH  14  15
ATOM     15  C   UNL     1     113.237  73.577  77.468  0.00  0.00    +0.000 C 
ATOM     16  C   UNL     1     112.511  72.977  76.253  0.00  0.00    +0.000 C 
ATOM     17  C   UNL     1     110.998  73.170  76.380  0.00  0.00    +0.000 C 
ATOM     18  C   UNL     1     110.451  72.546  77.661  0.00  0.00    +0.000 C 
ATOM     19  C   UNL     1     111.214  72.982  78.913  0.00  0.00    +0.000 C 
ATOM     20  C   UNL     1     112.734  72.876  78.755  0.00  0.00    +0.000 C 
BRANCH  20  21
ATOM     21  O   UNL     1     113.136  71.504  78.781  0.00  0.00    +0.000 OA
ATOM     22  H   UNL     1     114.036  71.430  78.423  0.00  0.00    +0.000 HD
ENDBRANCH  20  21
ENDBRANCH  14  15
ENDBRANCH  13  14
ENDBRANCH  11  13
ENDBRANCH  10  11
ENDBRANCH   7  10
ENDBRANCH   1   7
BRANCH   1  23
ATOM     23  O   UNL     1     114.824  78.621  72.316  0.00  0.00    +0.000 OA
BRANCH  23  24
ATOM     24  C   UNL     1     114.478  78.578  70.899  0.00  0.00    +0.000 C 
ATOM     25  C   UNL     1     115.025  77.318  70.209  0.00  0.00    +0.000 C 
ATOM     26  C   UNL     1     114.849  77.380  68.705  0.00  0.00    +0.000 C 
ATOM     27  O   UNL     1     115.483  78.550  68.196  0.00  0.00    +0.000 OA
ATOM     28  C   UNL     1     114.801  79.726  68.624  0.00  0.00    +0.000 C 
ATOM     29  C   UNL     1     114.837  79.895  70.157  0.00  0.00    +0.000 C 
BRANCH  29  30
ATOM     30  N   UNL     1     114.015  81.026  70.605  0.00  0.00    +0.000 N 
ATOM     31  C   UNL     1     114.524  82.055  71.367  0.00  0.00    +0.000 C 
ATOM     32  O   UNL     1     115.692  82.110  71.746  0.00  0.00    +0.000 OA
ATOM     33  H   UNL     1     113.151  81.197  70.103  0.00  0.00    +0.000 HD
BRANCH  31  34
ATOM     34  C   UNL     1     113.507  83.146  71.737  0.00  0.00    +0.000 C 
BRANCH  34  35
ATOM     35  N   UNL     1     113.666  83.497  73.162  0.00  0.00    +0.000 NA
ATOM     36  H   UNL     1     114.196  82.749  73.613  0.00  0.00    +0.000 HD
ATOM     37  H   UNL     1     112.749  83.473  73.611  0.00  0.00    +0.000 HD
ENDBRANCH  34  35
BRANCH  34  38
ATOM     38  C   UNL     1     113.784  84.374  70.865  0.00  0.00    +0.000 C 
BRANCH  38  39
ATOM     39  C   UNL     1     112.926  85.565  71.303  0.00  0.00    +0.000 C 
BRANCH  39  40
ATOM     40  O   UNL     1     113.615  86.414  72.231  0.00  0.00    +0.000 OA
BRANCH  40  41
ATOM     41  C   UNL     1     112.725  87.336  72.876  0.00  0.00    +0.000 C 
BRANCH  41  42
ATOM     42  C   UNL     1     112.658  88.632  72.082  0.00  0.00    +0.000 C 
BRANCH  42  43
ATOM     43  O   UNL     1     111.303  88.932  71.750  0.00  0.00    +0.000 OA
ATOM     44  H   UNL     1     110.799  88.793  72.572  0.00  0.00    +0.000 HD
ENDBRANCH  42  43
ENDBRANCH  41  42
ENDBRANCH  40  41
ENDBRANCH  39  40
ENDBRANCH  38  39
ENDBRANCH  34  38
ENDBRANCH  31  34
ENDBRANCH  29  30
ENDBRANCH  23  24
ENDBRANCH   1  23
TORSDOF 19
ENDMDL
MODEL 2
REMARK VINA RESULT:      -6.2      8.324     12.919
REMARK  Name = 
REMARK  20 active torsions:
REMARK  status: ('A' for Active; 'I' for Inactive)
REMARK    1  A    between atoms: C_1  and  C_2
REMARK    2  A    between atoms: C_2  and  C_3
REMARK    3  A    between atoms: C_7  and  O_8
REMARK    4  A    between atoms: C_7  and  C_20
REMARK    5  A    between atoms: O_8  and  C_9
REMARK    6  A    between atoms: C_9  and  C_11
REMARK    7  A    between atoms: C_11  and  O_12
REMARK    8  A    between atoms: O_12  and  C_13
REMARK    9  A    between atoms: C_18  and  O_19
REMARK   10  A    between atoms: C_20  and  O_22
REMARK   11  A    between atoms: O_22  and  C_23
REMARK   12  A    between atoms: C_28  and  N_29
REMARK   13  A    between atoms: C_30  and  C_32
REMARK   14  A    between atoms: C_32  and  N_33
REMARK   15  A    between atoms: C_32  and  C_34
REMARK   16  A    between atoms: C_34  and  C_35
REMARK   17  A    between atoms: C_35  and  O_36
REMARK   18  A    between atoms: O_36  and  C_37
REMARK   19  A    between atoms: C_37  and  C_38
REMARK   20  A    between atoms: C_38  and  O_39
REMARK                            x       y       z     vdW  Elec       q    Type
REMARK                         _______ _______ _______ _____ _____    ______ ____
ROOT
ATOM      1  C   UNL     1     112.898  73.437  83.369  0.00  0.00    +0.000 C 
ATOM      2  O   UNL     1     112.140  72.527  83.055  0.00  0.00    +0.000 OA
ENDROOT
BRANCH   1   7
ATOM      3  C   UNL     1     111.625  75.555  82.781  0.00  0.00    +0.000 C 
ATOM      4  C   UNL     1     110.766  76.564  83.559  0.00  0.00    +0.000 C 
ATOM      5  C   UNL     1     110.388  75.844  84.852  0.00  0.00    +0.000 C 
ATOM      6  C   UNL     1     111.238  74.571  84.889  0.00  0.00    +0.000 C 
ATOM      7  C   UNL     1     112.412  74.805  83.917  0.00  0.00    +0.000 C 
BRANCH   3   9
ATOM      8  C   UNL     1     112.592  75.425  80.415  0.00  0.00    +0.000 C 
ATOM      9  C   UNL     1     112.515  76.215  81.714  0.00  0.00    +0.000 C 
ENDBRANCH   3   9
BRANCH   7  10
ATOM     10  O   UNL     1     113.325  75.802  84.430  0.00  0.00    +0.000 OA
BRANCH  10  11
ATOM     11  C   UNL     1     113.930  75.681  85.638  0.00  0.00    +0.000 C 
ATOM     12  O   UNL     1     113.348  75.550  86.706  0.00  0.00    +0.000 OA
BRANCH  11  13
ATOM     13  C   UNL     1     115.460  75.541  85.505  0.00  0.00    +0.000 C 
BRANCH  13  14
ATOM     14  O   UNL     1     116.207  75.502  86.710  0.00  0.00    +0.000 OA
BRANCH  14  15
ATOM     15  C   UNL     1     117.357  76.370  86.752  0.00  0.00    +0.000 C 
ATOM     16  C   UNL     1     117.809  76.399  88.221  0.00  0.00    +0.000 C 
ATOM     17  C   UNL     1     116.727  77.024  89.106  0.00  0.00    +0.000 C 
ATOM     18  C   UNL     1     116.370  78.437  88.654  0.00  0.00    +0.000 C 
ATOM     19  C   UNL     1     116.042  78.524  87.163  0.00  0.00    +0.000 C 
ATOM     20  C   UNL     1     117.077  77.820  86.281  0.00  0.00    +0.000 C 
BRANCH  20  21
ATOM     21  O   UNL     1     118.285  78.585  86.234  0.00  0.00    +0.000 OA
ATOM     22  H   UNL     1     118.118  79.413  85.754  0.00  0.00    +0.000 HD
ENDBRANCH  20  21
ENDBRANCH  14  15
ENDBRANCH  13  14
ENDBRANCH  11  13
ENDBRANCH  10  11
ENDBRANCH   7  10
ENDBRANCH   1   7
BRANCH   1  23
ATOM     23  O   UNL     1     114.265  73.324  83.298  0.00  0.00    +0.000 OA
BRANCH  23  24
ATOM     24  C   UNL     1     114.865  71.994  83.307  0.00  0.00    +0.000 C 
ATOM     25  C   UNL     1     116.019  71.888  84.317  0.00  0.00    +0.000 C 
ATOM     26  C   UNL     1     116.772  70.581  84.173  0.00  0.00    +0.000 C 
ATOM     27  O   UNL     1     117.255  70.449  82.839  0.00  0.00    +0.000 OA
ATOM     28  C   UNL     1     116.177  70.274  81.923  0.00  0.00    +0.000 C 
ATOM     29  C   UNL     1     115.241  71.499  81.883  0.00  0.00    +0.000 C 
BRANCH  29  30
ATOM     30  N   UNL     1     114.057  71.261  81.048  0.00  0.00    +0.000 N 
ATOM     31  C   UNL     1     113.853  71.910  79.850  0.00  0.00    +0.000 C 
ATOM     32  O   UNL     1     114.626  72.745  79.386  0.00  0.00    +0.000 OA
ATOM     33  H   UNL     1     113.543  70.403  81.211  0.00  0.00    +0.000 HD
BRANCH  31  34
ATOM     34  C   UNL     1     112.555  71.525  79.123  0.00  0.00    +0.000 C 
BRANCH  34  35
ATOM     35  N   UNL     1     111.441  71.511  80.091  0.00  0.00    +0.000 NA
ATOM     36  H   UNL     1     111.247  70.538  80.335  0.00  0.00    +0.000 HD
ATOM     37  H   UNL     1     110.593  71.836  79.623  0.00  0.00    +0.000 HD
ENDBRANCH  34  35
BRANCH  34  38
ATOM     38  C   UNL     1     112.287  72.569  78.036  0.00  0.00    +0.000 C 
BRANCH  38  39
ATOM     39  C   UNL     1     112.706  72.049  76.658  0.00  0.00    +0.000 C 
BRANCH  39  40
ATOM     40  O   UNL     1     113.752  72.840  76.077  0.00  0.00    +0.000 OA
BRANCH  40  41
ATOM     41  C   UNL     1     113.811  72.687  74.652  0.00  0.00    +0.000 C 
BRANCH  41  42
ATOM     42  C   UNL     1     115.157  72.101  74.249  0.00  0.00    +0.000 C 
BRANCH  42  43
ATOM     43  O   UNL     1     114.967  70.844  73.600  0.00  0.00    +0.000 OA
ATOM     44  H   UNL     1     115.314  70.178  74.220  0.00  0.00    +0.000 HD
ENDBRANCH  42  43
ENDBRANCH  41  42
ENDBRANCH  40  41
ENDBRANCH  39  40
ENDBRANCH  38  39
ENDBRANCH  34  38
ENDBRANCH  31  34
ENDBRANCH  29  30
ENDBRANCH  23  24
ENDBRANCH   1  23
TORSDOF 19
ENDMDL
MODEL 3
REMARK VINA RESULT:      -6.2      5.726      9.730
REMARK  Name = 
REMARK  20 active torsions:
REMARK  status: ('A' for Active; 'I' for Inactive)
REMARK    1  A    between atoms: C_1  and  C_2
REMARK    2  A    between atoms: C_2  and  C_3
REMARK    3  A    between atoms: C_7  and  O_8
REMARK    4  A    between atoms: C_7  and  C_20
REMARK    5  A    between atoms: O_8  and  C_9
REMARK    6  A    between atoms: C_9  and  C_11
REMARK    7  A    between atoms: C_11  and  O_12
REMARK    8  A    between atoms: O_12  and  C_13
REMARK    9  A    between atoms: C_18  and  O_19
REMARK   10  A    between atoms: C_20  and  O_22
REMARK   11  A    between atoms: O_22  and  C_23
REMARK   12  A    between atoms: C_28  and  N_29
REMARK   13  A    between atoms: C_30  and  C_32
REMARK   14  A    between atoms: C_32  and  N_33
REMARK   15  A    between atoms: C_32  and  C_34
REMARK   16  A    between atoms: C_34  and  C_35
REMARK   17  A    between atoms: C_35  and  O_36
REMARK   18  A    between atoms: O_36  and  C_37
REMARK   19  A    between atoms: C_37  and  C_38
REMARK   20  A    between atoms: C_38  and  O_39
REMARK                            x       y       z     vdW  Elec       q    Type
REMARK                         _______ _______ _______ _____ _____    ______ ____
ROOT
ATOM      1  C   UNL     1     113.158  75.337  80.430  0.00  0.00    +0.000 C 
ATOM      2  O   UNL     1     112.980  76.388  79.827  0.00  0.00    +0.000 OA
ENDROOT
BRANCH   1   7
ATOM      3  C   UNL     1     112.022  74.962  82.672  0.00  0.00    +0.000 C 
ATOM      4  C   UNL     1     112.450  74.378  84.027  0.00  0.00    +0.000 C 
ATOM      5  C   UNL     1     113.716  73.577  83.729  0.00  0.00    +0.000 C 
ATOM      6  C   UNL     1     114.110  73.932  82.293  0.00  0.00    +0.000 C 
ATOM      7  C   UNL     1     113.394  75.258  81.962  0.00  0.00    +0.000 C 
BRANCH   3   9
ATOM      8  C   UNL     1     110.412  76.280  84.162  0.00  0.00    +0.000 C 
ATOM      9  C   UNL     1     111.095  76.181  82.805  0.00  0.00    +0.000 C 
ENDBRANCH   3   9
BRANCH   7  10
ATOM     10  O   UNL     1     113.953  76.357  82.717  0.00  0.00    +0.000 OA
BRANCH  10  11
ATOM     11  C   UNL     1     115.209  76.822  82.505  0.00  0.00    +0.000 C 
ATOM     12  O   UNL     1     115.533  77.588  81.608  0.00  0.00    +0.000 OA
BRANCH  11  13
ATOM     13  C   UNL     1     116.171  76.420  83.640  0.00  0.00    +0.000 C 
BRANCH  13  14
ATOM     14  O   UNL     1     115.997  77.073  84.888  0.00  0.00    +0.000 OA
BRANCH  14  15
ATOM     15  C   UNL     1     117.149  77.792  85.374  0.00  0.00    +0.000 C 
ATOM     16  C   UNL     1     117.970  76.774  86.182  0.00  0.00    +0.000 C 
ATOM     17  C   UNL     1     117.180  76.290  87.401  0.00  0.00    +0.000 C 
ATOM     18  C   UNL     1     116.768  77.447  88.306  0.00  0.00    +0.000 C 
ATOM     19  C   UNL     1     116.065  78.577  87.552  0.00  0.00    +0.000 C 
ATOM     20  C   UNL     1     116.808  79.000  86.281  0.00  0.00    +0.000 C 
BRANCH  20  21
ATOM     21  O   UNL     1     117.988  79.733  86.623  0.00  0.00    +0.000 OA
ATOM     22  H   UNL     1     117.857  80.669  86.398  0.00  0.00    +0.000 HD
ENDBRANCH  20  21
ENDBRANCH  14  15
ENDBRANCH  13  14
ENDBRANCH  11  13
ENDBRANCH  10  11
ENDBRANCH   7  10
ENDBRANCH   1   7
BRANCH   1  23
ATOM     23  O   UNL     1     113.134  74.111  79.811  0.00  0.00    +0.000 OA
BRANCH  23  24
ATOM     24  C   UNL     1     111.955  73.734  79.036  0.00  0.00    +0.000 C 
ATOM     25  C   UNL     1     111.189  72.568  79.680  0.00  0.00    +0.000 C 
ATOM     26  C   UNL     1     110.096  72.044  78.771  0.00  0.00    +0.000 C 
ATOM     27  O   UNL     1     110.659  71.651  77.522  0.00  0.00    +0.000 OA
ATOM     28  C   UNL     1     111.132  72.783  76.797  0.00  0.00    +0.000 C 
ATOM     29  C   UNL     1     112.277  73.509  77.534  0.00  0.00    +0.000 C 
BRANCH  29  30
ATOM     30  N   UNL     1     112.665  74.753  76.857  0.00  0.00    +0.000 N 
ATOM     31  C   UNL     1     113.591  74.784  75.838  0.00  0.00    +0.000 C 
ATOM     32  O   UNL     1     114.178  73.789  75.418  0.00  0.00    +0.000 OA
ATOM     33  H   UNL     1     112.031  75.540  76.939  0.00  0.00    +0.000 HD
BRANCH  31  34
ATOM     34  C   UNL     1     113.862  76.181  75.256  0.00  0.00    +0.000 C 
BRANCH  34  35
ATOM     35  N   UNL     1     112.663  76.648  74.535  0.00  0.00    +0.000 NA
ATOM     36  H   UNL     1     112.208  75.833  74.118  0.00  0.00    +0.000 HD
ATOM     37  H   UNL     1     112.958  77.217  73.739  0.00  0.00    +0.000 HD
ENDBRANCH  34  35
BRANCH  34  38
ATOM     38  C   UNL     1     114.174  77.130  76.417  0.00  0.00    +0.000 C 
BRANCH  38  39
ATOM     39  C   UNL     1     114.659  78.488  75.901  0.00  0.00    +0.000 C 
BRANCH  39  40
ATOM     40  O   UNL     1     115.018  78.441  74.512  0.00  0.00    +0.000 OA
BRANCH  40  41
ATOM     41  C   UNL     1     114.880  79.722  73.881  0.00  0.00    +0.000 C 
BRANCH  41  42
ATOM     42  C   UNL     1     113.864  79.635  72.751  0.00  0.00    +0.000 C 
BRANCH  42  43
ATOM     43  O   UNL     1     112.560  79.409  73.284  0.00  0.00    +0.000 OA
ATOM     44  H   UNL     1     112.463  78.440  73.328  0.00  0.00    +0.000 HD
ENDBRANCH  42  43
ENDBRANCH  41  42
ENDBRANCH  40  41
ENDBRANCH  39  40
ENDBRANCH  38  39
ENDBRANCH  34  38
ENDBRANCH  31  34
ENDBRANCH  29  30
ENDBRANCH  23  24
ENDBRANCH   1  23
TORSDOF 19
ENDMDL
MODEL 4
REMARK VINA RESULT:      -6.1      6.190     10.178
REMARK  Name = 
REMARK  20 active torsions:
REMARK  status: ('A' for Active; 'I' for Inactive)
REMARK    1  A    between atoms: C_1  and  C_2
REMARK    2  A    between atoms: C_2  and  C_3
REMARK    3  A    between atoms: C_7  and  O_8
REMARK    4  A    between atoms: C_7  and  C_20
REMARK    5  A    between atoms: O_8  and  C_9
REMARK    6  A    between atoms: C_9  and  C_11
REMARK    7  A    between atoms: C_11  and  O_12
REMARK    8  A    between atoms: O_12  and  C_13
REMARK    9  A    between atoms: C_18  and  O_19
REMARK   10  A    between atoms: C_20  and  O_22
REMARK   11  A    between atoms: O_22  and  C_23
REMARK   12  A    between atoms: C_28  and  N_29
REMARK   13  A    between atoms: C_30  and  C_32
REMARK   14  A    between atoms: C_32  and  N_33
REMARK   15  A    between atoms: C_32  and  C_34
REMARK   16  A    between atoms: C_34  and  C_35
REMARK   17  A    between atoms: C_35  and  O_36
REMARK   18  A    between atoms: O_36  and  C_37
REMARK   19  A    between atoms: C_37  and  C_38
REMARK   20  A    between atoms: C_38  and  O_39
REMARK                            x       y       z     vdW  Elec       q    Type
REMARK                         _______ _______ _______ _____ _____    ______ ____
ROOT
ATOM      1  C   UNL     1     113.248  76.112  80.909  0.00  0.00    +0.000 C 
ATOM      2  O   UNL     1     112.950  77.187  80.403  0.00  0.00    +0.000 OA
ENDROOT
BRANCH   1   7
ATOM      3  C   UNL     1     111.968  75.183  82.898  0.00  0.00    +0.000 C 
ATOM      4  C   UNL     1     112.352  74.525  84.232  0.00  0.00    +0.000 C 
ATOM      5  C   UNL     1     113.800  74.075  84.046  0.00  0.00    +0.000 C 
ATOM      6  C   UNL     1     114.272  74.707  82.734  0.00  0.00    +0.000 C 
ATOM      7  C   UNL     1     113.306  75.873  82.442  0.00  0.00    +0.000 C 
BRANCH   3   9
ATOM      8  C   UNL     1     110.203  76.227  84.429  0.00  0.00    +0.000 C 
ATOM      9  C   UNL     1     110.766  76.135  83.018  0.00  0.00    +0.000 C 
ENDBRANCH   3   9
BRANCH   7  10
ATOM     10  O   UNL     1     113.487  76.952  83.387  0.00  0.00    +0.000 OA
BRANCH  10  11
ATOM     11  C   UNL     1     114.665  77.610  83.524  0.00  0.00    +0.000 C 
ATOM     12  O   UNL     1     115.520  77.708  82.655  0.00  0.00    +0.000 OA
BRANCH  11  13
ATOM     13  C   UNL     1     114.738  78.390  84.852  0.00  0.00    +0.000 C 
BRANCH  13  14
ATOM     14  O   UNL     1     115.327  77.720  85.956  0.00  0.00    +0.000 OA
BRANCH  14  15
ATOM     15  C   UNL     1     116.370  78.448  86.634  0.00  0.00    +0.000 C 
ATOM     16  C   UNL     1     117.689  77.772  86.224  0.00  0.00    +0.000 C 
ATOM     17  C   UNL     1     117.733  76.327  86.726  0.00  0.00    +0.000 C 
ATOM     18  C   UNL     1     117.568  76.247  88.241  0.00  0.00    +0.000 C 
ATOM     19  C   UNL     1     116.350  77.018  88.753  0.00  0.00    +0.000 C 
ATOM     20  C   UNL     1     116.255  78.435  88.179  0.00  0.00    +0.000 C 
BRANCH  20  21
ATOM     21  O   UNL     1     117.249  79.274  88.774  0.00  0.00    +0.000 OA
ATOM     22  H   UNL     1     117.986  78.722  89.082  0.00  0.00    +0.000 HD
ENDBRANCH  20  21
ENDBRANCH  14  15
ENDBRANCH  13  14
ENDBRANCH  11  13
ENDBRANCH  10  11
ENDBRANCH   7  10
ENDBRANCH   1   7
BRANCH   1  23
ATOM     23  O   UNL     1     113.532  74.992  80.166  0.00  0.00    +0.000 OA
BRANCH  23  24
ATOM     24  C   UNL     1     112.494  74.436  79.303  0.00  0.00    +0.000 C 
ATOM     25  C   UNL     1     111.832  73.195  79.924  0.00  0.00    +0.000 C 
ATOM     26  C   UNL     1     110.911  72.500  78.942  0.00  0.00    +0.000 C 
ATOM     27  O   UNL     1     111.638  72.150  77.767  0.00  0.00    +0.000 OA
ATOM     28  C   UNL     1     112.023  73.315  77.041  0.00  0.00    +0.000 C 
ATOM     29  C   UNL     1     112.985  74.211  77.847  0.00  0.00    +0.000 C 
BRANCH  29  30
ATOM     30  N   UNL     1     113.268  75.476  77.156  0.00  0.00    +0.000 N 
ATOM     31  C   UNL     1     114.550  75.918  76.915  0.00  0.00    +0.000 C 
ATOM     32  O   UNL     1     115.559  75.309  77.264  0.00  0.00    +0.000 OA
ATOM     33  H   UNL     1     112.521  75.873  76.596  0.00  0.00    +0.000 HD
BRANCH  31  34
ATOM     34  C   UNL     1     114.639  77.265  76.179  0.00  0.00    +0.000 C 
BRANCH  34  35
ATOM     35  N   UNL     1     115.462  78.199  76.972  0.00  0.00    +0.000 NA
ATOM     36  H   UNL     1     115.104  79.144  76.817  0.00  0.00    +0.000 HD
ATOM     37  H   UNL     1     116.408  78.212  76.587  0.00  0.00    +0.000 HD
ENDBRANCH  34  35
BRANCH  34  38
ATOM     38  C   UNL     1     115.293  77.023  74.816  0.00  0.00    +0.000 C 
BRANCH  38  39
ATOM     39  C   UNL     1     114.280  76.464  73.812  0.00  0.00    +0.000 C 
BRANCH  39  40
ATOM     40  O   UNL     1     112.986  77.067  73.959  0.00  0.00    +0.000 OA
BRANCH  40  41
ATOM     41  C   UNL     1     112.285  77.139  72.709  0.00  0.00    +0.000 C 
BRANCH  41  42
ATOM     42  C   UNL     1     112.055  75.737  72.163  0.00  0.00    +0.000 C 
BRANCH  42  43
ATOM     43  O   UNL     1     110.661  75.516  71.956  0.00  0.00    +0.000 OA
ATOM     44  H   UNL     1     110.213  76.261  72.395  0.00  0.00    +0.000 HD
ENDBRANCH  42  43
ENDBRANCH  41  42
ENDBRANCH  40  41
ENDBRANCH  39  40
ENDBRANCH  38  39
ENDBRANCH  34  38
ENDBRANCH  31  34
ENDBRANCH  29  30
ENDBRANCH  23  24
ENDBRANCH   1  23
TORSDOF 19
ENDMDL
MODEL 5
REMARK VINA RESULT:      -6.1      6.772     11.322
REMARK  Name = 
REMARK  20 active torsions:
REMARK  status: ('A' for Active; 'I' for Inactive)
REMARK    1  A    between atoms: C_1  and  C_2
REMARK    2  A    between atoms: C_2  and  C_3
REMARK    3  A    between atoms: C_7  and  O_8
REMARK    4  A    between atoms: C_7  and  C_20
REMARK    5  A    between atoms: O_8  and  C_9
REMARK    6  A    between atoms: C_9  and  C_11
REMARK    7  A    between atoms: C_11  and  O_12
REMARK    8  A    between atoms: O_12  and  C_13
REMARK    9  A    between atoms: C_18  and  O_19
REMARK   10  A    between atoms: C_20  and  O_22
REMARK   11  A    between atoms: O_22  and  C_23
REMARK   12  A    between atoms: C_28  and  N_29
REMARK   13  A    between atoms: C_30  and  C_32
REMARK   14  A    between atoms: C_32  and  N_33
REMARK   15  A    between atoms: C_32  and  C_34
REMARK   16  A    between atoms: C_34  and  C_35
REMARK   17  A    between atoms: C_35  and  O_36
REMARK   18  A    between atoms: O_36  and  C_37
REMARK   19  A    between atoms: C_37  and  C_38
REMARK   20  A    between atoms: C_38  and  O_39
REMARK                            x       y       z     vdW  Elec       q    Type
REMARK                         _______ _______ _______ _____ _____    ______ ____
ROOT
ATOM      1  C   UNL     1     113.209  76.234  80.778  0.00  0.00    +0.000 C 
ATOM      2  O   UNL     1     112.938  77.346  80.343  0.00  0.00    +0.000 OA
ENDROOT
BRANCH   1   7
ATOM      3  C   UNL     1     111.913  75.184  82.695  0.00  0.00    +0.000 C 
ATOM      4  C   UNL     1     112.287  74.438  83.986  0.00  0.00    +0.000 C 
ATOM      5  C   UNL     1     113.734  73.994  83.778  0.00  0.00    +0.000 C 
ATOM      6  C   UNL     1     114.216  74.708  82.512  0.00  0.00    +0.000 C 
ATOM      7  C   UNL     1     113.257  75.895  82.292  0.00  0.00    +0.000 C 
BRANCH   3   9
ATOM      8  C   UNL     1     110.238  76.247  84.312  0.00  0.00    +0.000 C 
ATOM      9  C   UNL     1     110.715  76.132  82.871  0.00  0.00    +0.000 C 
ENDBRANCH   3   9
BRANCH   7  10
ATOM     10  O   UNL     1     113.437  76.909  83.307  0.00  0.00    +0.000 OA
BRANCH  10  11
ATOM     11  C   UNL     1     114.648  77.455  83.583  0.00  0.00    +0.000 C 
ATOM     12  O   UNL     1     115.441  77.866  82.747  0.00  0.00    +0.000 OA
BRANCH  11  13
ATOM     13  C   UNL     1     114.849  77.675  85.096  0.00  0.00    +0.000 C 
BRANCH  13  14
ATOM     14  O   UNL     1     115.880  76.925  85.720  0.00  0.00    +0.000 OA
BRANCH  14  15
ATOM     15  C   UNL     1     117.092  77.655  85.997  0.00  0.00    +0.000 C 
ATOM     16  C   UNL     1     118.008  76.677  86.751  0.00  0.00    +0.000 C 
ATOM     17  C   UNL     1     117.389  76.283  88.094  0.00  0.00    +0.000 C 
ATOM     18  C   UNL     1     117.112  77.501  88.970  0.00  0.00    +0.000 C 
ATOM     19  C   UNL     1     116.321  78.592  88.248  0.00  0.00    +0.000 C 
ATOM     20  C   UNL     1     116.886  78.923  86.863  0.00  0.00    +0.000 C 
BRANCH  20  21
ATOM     21  O   UNL     1     118.107  79.657  86.994  0.00  0.00    +0.000 OA
ATOM     22  H   UNL     1     118.412  79.926  86.111  0.00  0.00    +0.000 HD
ENDBRANCH  20  21
ENDBRANCH  14  15
ENDBRANCH  13  14
ENDBRANCH  11  13
ENDBRANCH  10  11
ENDBRANCH   7  10
ENDBRANCH   1   7
BRANCH   1  23
ATOM     23  O   UNL     1     113.468  75.158  79.964  0.00  0.00    +0.000 OA
BRANCH  23  24
ATOM     24  C   UNL     1     114.509  75.277  78.948  0.00  0.00    +0.000 C 
ATOM     25  C   UNL     1     115.744  76.026  79.472  0.00  0.00    +0.000 C 
ATOM     26  C   UNL     1     116.729  76.332  78.361  0.00  0.00    +0.000 C 
ATOM     27  O   UNL     1     116.079  77.081  77.338  0.00  0.00    +0.000 OA
ATOM     28  C   UNL     1     115.107  76.286  76.664  0.00  0.00    +0.000 C 
ATOM     29  C   UNL     1     113.970  75.837  77.604  0.00  0.00    +0.000 C 
BRANCH  29  30
ATOM     30  N   UNL     1     113.047  74.903  76.944  0.00  0.00    +0.000 N 
ATOM     31  C   UNL     1     113.453  73.675  76.467  0.00  0.00    +0.000 C 
ATOM     32  O   UNL     1     114.608  73.263  76.538  0.00  0.00    +0.000 OA
ATOM     33  H   UNL     1     112.057  75.039  77.109  0.00  0.00    +0.000 HD
BRANCH  31  34
ATOM     34  C   UNL     1     112.341  72.842  75.810  0.00  0.00    +0.000 C 
BRANCH  34  35
ATOM     35  N   UNL     1     112.555  71.415  76.121  0.00  0.00    +0.000 NA
ATOM     36  H   UNL     1     112.205  70.865  75.333  0.00  0.00    +0.000 HD
ATOM     37  H   UNL     1     111.955  71.156  76.906  0.00  0.00    +0.000 HD
ENDBRANCH  34  35
BRANCH  34  38
ATOM     38  C   UNL     1     110.996  73.303  76.379  0.00  0.00    +0.000 C 
BRANCH  38  39
ATOM     39  C   UNL     1     110.593  72.456  77.590  0.00  0.00    +0.000 C 
BRANCH  39  40
ATOM     40  O   UNL     1     111.389  72.753  78.746  0.00  0.00    +0.000 OA
BRANCH  40  41
ATOM     41  C   UNL     1     111.535  71.612  79.603  0.00  0.00    +0.000 C 
BRANCH  41  42
ATOM     42  C   UNL     1     112.437  71.961  80.778  0.00  0.00    +0.000 C 
BRANCH  42  43
ATOM     43  O   UNL     1     112.000  71.274  81.950  0.00  0.00    +0.000 OA
ATOM     44  H   UNL     1     112.444  71.722  82.693  0.00  0.00    +0.000 HD
ENDBRANCH  42  43
ENDBRANCH  41  42
ENDBRANCH  40  41
ENDBRANCH  39  40
ENDBRANCH  38  39
ENDBRANCH  34  38
ENDBRANCH  31  34
ENDBRANCH  29  30
ENDBRANCH  23  24
ENDBRANCH   1  23
TORSDOF 19
ENDMDL
MODEL 6
REMARK VINA RESULT:      -5.9      2.439      3.867
REMARK  Name = 
REMARK  20 active torsions:
REMARK  status: ('A' for Active; 'I' for Inactive)
REMARK    1  A    between atoms: C_1  and  C_2
REMARK    2  A    between atoms: C_2  and  C_3
REMARK    3  A    between atoms: C_7  and  O_8
REMARK    4  A    between atoms: C_7  and  C_20
REMARK    5  A    between atoms: O_8  and  C_9
REMARK    6  A    between atoms: C_9  and  C_11
REMARK    7  A    between atoms: C_11  and  O_12
REMARK    8  A    between atoms: O_12  and  C_13
REMARK    9  A    between atoms: C_18  and  O_19
REMARK   10  A    between atoms: C_20  and  O_22
REMARK   11  A    between atoms: O_22  and  C_23
REMARK   12  A    between atoms: C_28  and  N_29
REMARK   13  A    between atoms: C_30  and  C_32
REMARK   14  A    between atoms: C_32  and  N_33
REMARK   15  A    between atoms: C_32  and  C_34
REMARK   16  A    between atoms: C_34  and  C_35
REMARK   17  A    between atoms: C_35  and  O_36
REMARK   18  A    between atoms: O_36  and  C_37
REMARK   19  A    between atoms: C_37  and  C_38
REMARK   20  A    between atoms: C_38  and  O_39
REMARK                            x       y       z     vdW  Elec       q    Type
REMARK                         _______ _______ _______ _____ _____    ______ ____
ROOT
ATOM      1  C   UNL     1     113.857  76.614  75.807  0.00  0.00    +0.000 C 
ATOM      2  O   UNL     1     113.697  77.785  76.128  0.00  0.00    +0.000 OA
ENDROOT
BRANCH   1   7
ATOM      3  C   UNL     1     113.413  74.141  76.182  0.00  0.00    +0.000 C 
ATOM      4  C   UNL     1     114.072  73.028  77.011  0.00  0.00    +0.000 C 
ATOM      5  C   UNL     1     115.465  73.559  77.346  0.00  0.00    +0.000 C 
ATOM      6  C   UNL     1     115.465  75.032  76.929  0.00  0.00    +0.000 C 
ATOM      7  C   UNL     1     113.985  75.455  76.830  0.00  0.00    +0.000 C 
BRANCH   3   9
ATOM      8  C   UNL     1     111.333  72.810  76.855  0.00  0.00    +0.000 C 
ATOM      9  C   UNL     1     111.878  74.053  76.164  0.00  0.00    +0.000 C 
ENDBRANCH   3   9
BRANCH   7  10
ATOM     10  O   UNL     1     113.366  75.502  78.136  0.00  0.00    +0.000 OA
BRANCH  10  11
ATOM     11  C   UNL     1     113.773  76.362  79.103  0.00  0.00    +0.000 C 
ATOM     12  O   UNL     1     113.458  77.542  79.174  0.00  0.00    +0.000 OA
BRANCH  11  13
ATOM     13  C   UNL     1     114.542  75.640  80.228  0.00  0.00    +0.000 C 
BRANCH  13  14
ATOM     14  O   UNL     1     113.766  74.935  81.184  0.00  0.00    +0.000 OA
BRANCH  14  15
ATOM     15  C   UNL     1     114.414  73.797  81.787  0.00  0.00    +0.000 C 
ATOM     16  C   UNL     1     114.302  72.656  80.762  0.00  0.00    +0.000 C 
ATOM     17  C   UNL     1     112.836  72.283  80.530  0.00  0.00    +0.000 C 
ATOM     18  C   UNL     1     112.142  71.874  81.826  0.00  0.00    +0.000 C 
ATOM     19  C   UNL     1     112.325  72.894  82.951  0.00  0.00    +0.000 C 
ATOM     20  C   UNL     1     113.780  73.338  83.124  0.00  0.00    +0.000 C 
BRANCH  20  21
ATOM     21  O   UNL     1     114.547  72.288  83.721  0.00  0.00    +0.000 OA
ATOM     22  H   UNL     1     115.005  71.793  83.021  0.00  0.00    +0.000 HD
ENDBRANCH  20  21
ENDBRANCH  14  15
ENDBRANCH  13  14
ENDBRANCH  11  13
ENDBRANCH  10  11
ENDBRANCH   7  10
ENDBRANCH   1   7
BRANCH   1  23
ATOM     23  O   UNL     1     113.907  76.202  74.497  0.00  0.00    +0.000 OA
BRANCH  23  24
ATOM     24  C   UNL     1     112.825  76.585  73.595  0.00  0.00    +0.000 C 
ATOM     25  C   UNL     1     112.271  75.382  72.815  0.00  0.00    +0.000 C 
ATOM     26  C   UNL     1     111.301  75.813  71.733  0.00  0.00    +0.000 C 
ATOM     27  O   UNL     1     111.942  76.734  70.854  0.00  0.00    +0.000 OA
ATOM     28  C   UNL     1     112.214  77.966  71.517  0.00  0.00    +0.000 C 
ATOM     29  C   UNL     1     113.201  77.790  72.690  0.00  0.00    +0.000 C 
BRANCH  29  30
ATOM     30  N   UNL     1     113.370  79.030  73.459  0.00  0.00    +0.000 N 
ATOM     31  C   UNL     1     114.484  79.831  73.336  0.00  0.00    +0.000 C 
ATOM     32  O   UNL     1     115.429  79.577  72.594  0.00  0.00    +0.000 OA
ATOM     33  H   UNL     1     112.534  79.445  73.853  0.00  0.00    +0.000 HD
BRANCH  31  34
ATOM     34  C   UNL     1     114.474  81.086  74.224  0.00  0.00    +0.000 C 
BRANCH  34  35
ATOM     35  N   UNL     1     114.548  80.679  75.641  0.00  0.00    +0.000 NA
ATOM     36  H   UNL     1     115.005  81.430  76.162  0.00  0.00    +0.000 HD
ATOM     37  H   UNL     1     115.182  79.883  75.723  0.00  0.00    +0.000 HD
ENDBRANCH  34  35
BRANCH  34  38
ATOM     38  C   UNL     1     115.694  81.937  73.863  0.00  0.00    +0.000 C 
BRANCH  38  39
ATOM     39  C   UNL     1     115.376  82.893  72.710  0.00  0.00    +0.000 C 
BRANCH  39  40
ATOM     40  O   UNL     1     114.441  83.911  73.095  0.00  0.00    +0.000 OA
BRANCH  40  41
ATOM     41  C   UNL     1     113.345  84.006  72.174  0.00  0.00    +0.000 C 
BRANCH  41  42
ATOM     42  C   UNL     1     113.532  85.217  71.270  0.00  0.00    +0.000 C 
BRANCH  42  43
ATOM     43  O   UNL     1     112.564  86.216  71.585  0.00  0.00    +0.000 OA
ATOM     44  H   UNL     1     112.443  86.164  72.550  0.00  0.00    +0.000 HD
ENDBRANCH  42  43
ENDBRANCH  41  42
ENDBRANCH  40  41
ENDBRANCH  39  40
ENDBRANCH  38  39
ENDBRANCH  34  38
ENDBRANCH  31  34
ENDBRANCH  29  30
ENDBRANCH  23  24
ENDBRANCH   1  23
TORSDOF 19
ENDMDL
MODEL 7
REMARK VINA RESULT:      -5.8      3.720      5.626
REMARK  Name = 
REMARK  20 active torsions:
REMARK  status: ('A' for Active; 'I' for Inactive)
REMARK    1  A    between atoms: C_1  and  C_2
REMARK    2  A    between atoms: C_2  and  C_3
REMARK    3  A    between atoms: C_7  and  O_8
REMARK    4  A    between atoms: C_7  and  C_20
REMARK    5  A    between atoms: O_8  and  C_9
REMARK    6  A    between atoms: C_9  and  C_11
REMARK    7  A    between atoms: C_11  and  O_12
REMARK    8  A    between atoms: O_12  and  C_13
REMARK    9  A    between atoms: C_18  and  O_19
REMARK   10  A    between atoms: C_20  and  O_22
REMARK   11  A    between atoms: O_22  and  C_23
REMARK   12  A    between atoms: C_28  and  N_29
REMARK   13  A    between atoms: C_30  and  C_32
REMARK   14  A    between atoms: C_32  and  N_33
REMARK   15  A    between atoms: C_32  and  C_34
REMARK   16  A    between atoms: C_34  and  C_35
REMARK   17  A    between atoms: C_35  and  O_36
REMARK   18  A    between atoms: O_36  and  C_37
REMARK   19  A    between atoms: C_37  and  C_38
REMARK   20  A    between atoms: C_38  and  O_39
REMARK                            x       y       z     vdW  Elec       q    Type
REMARK                         _______ _______ _______ _____ _____    ______ ____
ROOT
ATOM      1  C   UNL     1     114.233  74.636  74.709  0.00  0.00    +0.000 C 
ATOM      2  O   UNL     1     114.457  73.651  74.016  0.00  0.00    +0.000 OA
ENDROOT
BRANCH   1   7
ATOM      3  C   UNL     1     112.844  73.396  76.438  0.00  0.00    +0.000 C 
ATOM      4  C   UNL     1     112.999  73.067  77.931  0.00  0.00    +0.000 C 
ATOM      5  C   UNL     1     114.485  73.270  78.226  0.00  0.00    +0.000 C 
ATOM      6  C   UNL     1     115.072  73.945  76.983  0.00  0.00    +0.000 C 
ATOM      7  C   UNL     1     113.880  74.558  76.219  0.00  0.00    +0.000 C 
BRANCH   3   9
ATOM      8  C   UNL     1     110.350  73.029  76.884  0.00  0.00    +0.000 C 
ATOM      9  C   UNL     1     111.398  73.746  76.044  0.00  0.00    +0.000 C 
ENDBRANCH   3   9
BRANCH   7  10
ATOM     10  O   UNL     1     113.316  75.676  76.941  0.00  0.00    +0.000 OA
BRANCH  10  11
ATOM     11  C   UNL     1     114.084  76.650  77.490  0.00  0.00    +0.000 C 
ATOM     12  O   UNL     1     114.890  77.338  76.879  0.00  0.00    +0.000 OA
BRANCH  11  13
ATOM     13  C   UNL     1     113.696  76.931  78.956  0.00  0.00    +0.000 C 
BRANCH  13  14
ATOM     14  O   UNL     1     114.163  76.009  79.929  0.00  0.00    +0.000 OA
BRANCH  14  15
ATOM     15  C   UNL     1     113.701  76.245  81.273  0.00  0.00    +0.000 C 
ATOM     16  C   UNL     1     114.501  75.284  82.168  0.00  0.00    +0.000 C 
ATOM     17  C   UNL     1     114.179  73.829  81.818  0.00  0.00    +0.000 C 
ATOM     18  C   UNL     1     112.689  73.529  81.951  0.00  0.00    +0.000 C 
ATOM     19  C   UNL     1     111.807  74.529  81.202  0.00  0.00    +0.000 C 
ATOM     20  C   UNL     1     112.187  75.986  81.480  0.00  0.00    +0.000 C 
BRANCH  20  21
ATOM     21  O   UNL     1     111.780  76.357  82.801  0.00  0.00    +0.000 OA
ATOM     22  H   UNL     1     112.315  77.112  83.098  0.00  0.00    +0.000 HD
ENDBRANCH  20  21
ENDBRANCH  14  15
ENDBRANCH  13  14
ENDBRANCH  11  13
ENDBRANCH  10  11
ENDBRANCH   7  10
ENDBRANCH   1   7
BRANCH   1  23
ATOM     23  O   UNL     1     114.302  75.919  74.224  0.00  0.00    +0.000 OA
BRANCH  23  24
ATOM     24  C   UNL     1     113.143  76.475  73.533  0.00  0.00    +0.000 C 
ATOM     25  C   UNL     1     112.454  75.437  72.632  0.00  0.00    +0.000 C 
ATOM     26  C   UNL     1     111.388  76.069  71.760  0.00  0.00    +0.000 C 
ATOM     27  O   UNL     1     111.964  77.112  70.979  0.00  0.00    +0.000 OA
ATOM     28  C   UNL     1     112.361  78.205  71.803  0.00  0.00    +0.000 C 
ATOM     29  C   UNL     1     113.465  77.808  72.804  0.00  0.00    +0.000 C 
BRANCH  29  30
ATOM     30  N   UNL     1     113.771  78.894  73.745  0.00  0.00    +0.000 N 
ATOM     31  C   UNL     1     114.790  79.796  73.529  0.00  0.00    +0.000 C 
ATOM     32  O   UNL     1     115.532  79.766  72.550  0.00  0.00    +0.000 OA
ATOM     33  H   UNL     1     113.043  79.156  74.400  0.00  0.00    +0.000 HD
BRANCH  31  34
ATOM     34  C   UNL     1     114.952  80.859  74.628  0.00  0.00    +0.000 C 
BRANCH  34  35
ATOM     35  N   UNL     1     114.368  80.351  75.885  0.00  0.00    +0.000 NA
ATOM     36  H   UNL     1     113.706  81.050  76.229  0.00  0.00    +0.000 HD
ATOM     37  H   UNL     1     115.100  80.313  76.596  0.00  0.00    +0.000 HD
ENDBRANCH  34  35
BRANCH  34  38
ATOM     38  C   UNL     1     116.447  81.126  74.819  0.00  0.00    +0.000 C 
BRANCH  38  39
ATOM     39  C   UNL     1     117.100  80.019  75.654  0.00  0.00    +0.000 C 
BRANCH  39  40
ATOM     40  O   UNL     1     117.062  80.310  77.058  0.00  0.00    +0.000 OA
BRANCH  40  41
ATOM     41  C   UNL     1     118.257  79.879  77.726  0.00  0.00    +0.000 C 
BRANCH  41  42
ATOM     42  C   UNL     1     118.064  78.474  78.277  0.00  0.00    +0.000 C 
BRANCH  42  43
ATOM     43  O   UNL     1     116.831  78.394  78.991  0.00  0.00    +0.000 OA
ATOM     44  H   UNL     1     117.080  78.339  79.931  0.00  0.00    +0.000 HD
ENDBRANCH  42  43
ENDBRANCH  41  42
ENDBRANCH  40  41
ENDBRANCH  39  40
ENDBRANCH  38  39
ENDBRANCH  34  38
ENDBRANCH  31  34
ENDBRANCH  29  30
ENDBRANCH  23  24
ENDBRANCH   1  23
TORSDOF 19
ENDMDL
MODEL 8
REMARK VINA RESULT:      -5.8      4.633     10.285
REMARK  Name = 
REMARK  20 active torsions:
REMARK  status: ('A' for Active; 'I' for Inactive)
REMARK    1  A    between atoms: C_1  and  C_2
REMARK    2  A    between atoms: C_2  and  C_3
REMARK    3  A    between atoms: C_7  and  O_8
REMARK    4  A    between atoms: C_7  and  C_20
REMARK    5  A    between atoms: O_8  and  C_9
REMARK    6  A    between atoms: C_9  and  C_11
REMARK    7  A    between atoms: C_11  and  O_12
REMARK    8  A    between atoms: O_12  and  C_13
REMARK    9  A    between atoms: C_18  and  O_19
REMARK   10  A    between atoms: C_20  and  O_22
REMARK   11  A    between atoms: O_22  and  C_23
REMARK   12  A    between atoms: C_28  and  N_29
REMARK   13  A    between atoms: C_30  and  C_32
REMARK   14  A    between atoms: C_32  and  N_33
REMARK   15  A    between atoms: C_32  and  C_34
REMARK   16  A    between atoms: C_34  and  C_35
REMARK   17  A    between atoms: C_35  and  O_36
REMARK   18  A    between atoms: O_36  and  C_37
REMARK   19  A    between atoms: C_37  and  C_38
REMARK   20  A    between atoms: C_38  and  O_39
REMARK                            x       y       z     vdW  Elec       q    Type
REMARK                         _______ _______ _______ _____ _____    ______ ____
ROOT
ATOM      1  C   UNL     1     114.184  75.512  77.819  0.00  0.00    +0.000 C 
ATOM      2  O   UNL     1     115.121  75.759  78.568  0.00  0.00    +0.000 OA
ENDROOT
BRANCH   1   7
ATOM      3  C   UNL     1     115.343  76.748  75.927  0.00  0.00    +0.000 C 
ATOM      4  C   UNL     1     115.701  76.423  74.468  0.00  0.00    +0.000 C 
ATOM      5  C   UNL     1     115.608  74.901  74.371  0.00  0.00    +0.000 C 
ATOM      6  C   UNL     1     114.961  74.434  75.678  0.00  0.00    +0.000 C 
ATOM      7  C   UNL     1     114.255  75.668  76.277  0.00  0.00    +0.000 C 
BRANCH   3   9
ATOM      8  C   UNL     1     115.844  79.227  75.532  0.00  0.00    +0.000 C 
ATOM      9  C   UNL     1     114.886  78.204  76.126  0.00  0.00    +0.000 C 
ENDBRANCH   3   9
BRANCH   7  10
ATOM     10  O   UNL     1     113.109  76.051  75.484  0.00  0.00    +0.000 OA
BRANCH  10  11
ATOM     11  C   UNL     1     112.272  75.140  74.926  0.00  0.00    +0.000 C 
ATOM     12  O   UNL     1     111.676  74.265  75.539  0.00  0.00    +0.000 OA
BRANCH  11  13
ATOM     13  C   UNL     1     112.004  75.440  73.438  0.00  0.00    +0.000 C 
BRANCH  13  14
ATOM     14  O   UNL     1     112.843  76.401  72.817  0.00  0.00    +0.000 OA
BRANCH  14  15
ATOM     15  C   UNL     1     112.191  77.620  72.411  0.00  0.00    +0.000 C 
ATOM     16  C   UNL     1     112.076  77.546  70.879  0.00  0.00    +0.000 C 
ATOM     17  C   UNL     1     113.464  77.530  70.235  0.00  0.00    +0.000 C 
ATOM     18  C   UNL     1     114.287  78.754  70.627  0.00  0.00    +0.000 C 
ATOM     19  C   UNL     1     114.335  78.985  72.138  0.00  0.00    +0.000 C 
ATOM     20  C   UNL     1     112.956  78.911  72.799  0.00  0.00    +0.000 C 
BRANCH  20  21
ATOM     21  O   UNL     1     112.192  80.076  72.473  0.00  0.00    +0.000 OA
ATOM     22  H   UNL     1     112.119  80.638  73.262  0.00  0.00    +0.000 HD
ENDBRANCH  20  21
ENDBRANCH  14  15
ENDBRANCH  13  14
ENDBRANCH  11  13
ENDBRANCH  10  11
ENDBRANCH   7  10
ENDBRANCH   1   7
BRANCH   1  23
ATOM     23  O   UNL     1     112.976  75.037  78.271  0.00  0.00    +0.000 OA
BRANCH  23  24
ATOM     24  C   UNL     1     112.949  73.799  79.044  0.00  0.00    +0.000 C 
ATOM     25  C   UNL     1     112.537  72.591  78.186  0.00  0.00    +0.000 C 
ATOM     26  C   UNL     1     112.306  71.355  79.031  0.00  0.00    +0.000 C 
ATOM     27  O   UNL     1     111.321  71.630  80.024  0.00  0.00    +0.000 OA
ATOM     28  C   UNL     1     111.812  72.561  80.985  0.00  0.00    +0.000 C 
ATOM     29  C   UNL     1     112.132  73.933  80.357  0.00  0.00    +0.000 C 
BRANCH  29  30
ATOM     30  N   UNL     1     112.770  74.842  81.317  0.00  0.00    +0.000 N 
ATOM     31  C   UNL     1     112.046  75.617  82.198  0.00  0.00    +0.000 C 
ATOM     32  O   UNL     1     110.819  75.626  82.248  0.00  0.00    +0.000 OA
ATOM     33  H   UNL     1     113.747  74.675  81.532  0.00  0.00    +0.000 HD
BRANCH  31  34
ATOM     34  C   UNL     1     112.896  76.503  83.123  0.00  0.00    +0.000 C 
BRANCH  34  35
ATOM     35  N   UNL     1     112.170  76.717  84.390  0.00  0.00    +0.000 NA
ATOM     36  H   UNL     1     111.400  77.364  84.207  0.00  0.00    +0.000 HD
ATOM     37  H   UNL     1     112.781  77.217  85.039  0.00  0.00    +0.000 HD
ENDBRANCH  34  35
BRANCH  34  38
ATOM     38  C   UNL     1     114.218  75.781  83.396  0.00  0.00    +0.000 C 
BRANCH  38  39
ATOM     39  C   UNL     1     115.349  76.783  83.647  0.00  0.00    +0.000 C 
BRANCH  39  40
ATOM     40  O   UNL     1     114.873  77.997  84.245  0.00  0.00    +0.000 OA
BRANCH  40  41
ATOM     41  C   UNL     1     115.267  78.106  85.620  0.00  0.00    +0.000 C 
BRANCH  41  42
ATOM     42  C   UNL     1     116.753  78.424  85.709  0.00  0.00    +0.000 C 
BRANCH  42  43
ATOM     43  O   UNL     1     117.066  79.532  84.867  0.00  0.00    +0.000 OA
ATOM     44  H   UNL     1     117.403  80.223  85.464  0.00  0.00    +0.000 HD
ENDBRANCH  42  43
ENDBRANCH  41  42
ENDBRANCH  40  41
ENDBRANCH  39  40
ENDBRANCH  38  39
ENDBRANCH  34  38
ENDBRANCH  31  34
ENDBRANCH  29  30
ENDBRANCH  23  24
ENDBRANCH   1  23
TORSDOF 19
ENDMDL
MODEL 9
REMARK VINA RESULT:      -5.8     22.383     27.678
REMARK  Name = 
REMARK  20 active torsions:
REMARK  status: ('A' for Active; 'I' for Inactive)
REMARK    1  A    between atoms: C_1  and  C_2
REMARK    2  A    between atoms: C_2  and  C_3
REMARK    3  A    between atoms: C_7  and  O_8
REMARK    4  A    between atoms: C_7  and  C_20
REMARK    5  A    between atoms: O_8  and  C_9
REMARK    6  A    between atoms: C_9  and  C_11
REMARK    7  A    between atoms: C_11  and  O_12
REMARK    8  A    between atoms: O_12  and  C_13
REMARK    9  A    between atoms: C_18  and  O_19
REMARK   10  A    between atoms: C_20  and  O_22
REMARK   11  A    between atoms: O_22  and  C_23
REMARK   12  A    between atoms: C_28  and  N_29
REMARK   13  A    between atoms: C_30  and  C_32
REMARK   14  A    between atoms: C_32  and  N_33
REMARK   15  A    between atoms: C_32  and  C_34
REMARK   16  A    between atoms: C_34  and  C_35
REMARK   17  A    between atoms: C_35  and  O_36
REMARK   18  A    between atoms: O_36  and  C_37
REMARK   19  A    between atoms: C_37  and  C_38
REMARK   20  A    between atoms: C_38  and  O_39
REMARK                            x       y       z     vdW  Elec       q    Type
REMARK                         _______ _______ _______ _____ _____    ______ ____
ROOT
ATOM      1  C   UNL     1     101.697 103.016  80.718  0.00  0.00    +0.000 C 
ATOM      2  O   UNL     1     102.012 101.832  80.707  0.00  0.00    +0.000 OA
ENDROOT
BRANCH   1   7
ATOM      3  C   UNL     1     102.990 105.161  80.292  0.00  0.00    +0.000 C 
ATOM      4  C   UNL     1     103.318 106.419  81.112  0.00  0.00    +0.000 C 
ATOM      5  C   UNL     1     102.313 106.411  82.262  0.00  0.00    +0.000 C 
ATOM      6  C   UNL     1     101.626 105.043  82.213  0.00  0.00    +0.000 C 
ATOM      7  C   UNL     1     102.552 104.123  81.390  0.00  0.00    +0.000 C 
BRANCH   3   9
ATOM      8  C   UNL     1     105.418 105.536  79.572  0.00  0.00    +0.000 C 
ATOM      9  C   UNL     1     104.158 104.697  79.405  0.00  0.00    +0.000 C 
ENDBRANCH   3   9
BRANCH   7  10
ATOM     10  O   UNL     1     103.772 103.832  82.108  0.00  0.00    +0.000 OA
BRANCH  10  11
ATOM     11  C   UNL     1     103.785 103.115  83.259  0.00  0.00    +0.000 C 
ATOM     12  O   UNL     1     103.266 103.463  84.311  0.00  0.00    +0.000 OA
BRANCH  11  13
ATOM     13  C   UNL     1     104.377 101.706  83.053  0.00  0.00    +0.000 C 
BRANCH  13  14
ATOM     14  O   UNL     1     104.984 101.444  81.798  0.00  0.00    +0.000 OA
BRANCH  14  15
ATOM     15  C   UNL     1     106.342 100.965  81.857  0.00  0.00    +0.000 C 
ATOM     16  C   UNL     1     107.183 101.986  81.072  0.00  0.00    +0.000 C 
ATOM     17  C   UNL     1     106.766 102.009  79.600  0.00  0.00    +0.000 C 
ATOM     18  C   UNL     1     106.896 100.634  78.951  0.00  0.00    +0.000 C 
ATOM     19  C   UNL     1     106.203  99.528  79.747  0.00  0.00    +0.000 C 
ATOM     20  C   UNL     1     106.548  99.559  81.239  0.00  0.00    +0.000 C 
BRANCH  20  21
ATOM     21  O   UNL     1     107.889  99.102  81.443  0.00  0.00    +0.000 OA
ATOM     22  H   UNL     1     107.870  98.293  81.981  0.00  0.00    +0.000 HD
ENDBRANCH  20  21
ENDBRANCH  14  15
ENDBRANCH  13  14
ENDBRANCH  11  13
ENDBRANCH  10  11
ENDBRANCH   7  10
ENDBRANCH   1   7
BRANCH   1  23
ATOM     23  O   UNL     1     100.563 103.490  80.104  0.00  0.00    +0.000 OA
BRANCH  23  24
ATOM     24  C   UNL     1     100.284 103.086  78.729  0.00  0.00    +0.000 C 
ATOM     25  C   UNL     1      99.988 104.290  77.822  0.00  0.00    +0.000 C 
ATOM     26  C   UNL     1      99.494 103.857  76.457  0.00  0.00    +0.000 C 
ATOM     27  O   UNL     1      98.336 103.038  76.603  0.00  0.00    +0.000 OA
ATOM     28  C   UNL     1      98.668 101.792  77.210  0.00  0.00    +0.000 C 
ATOM     29  C   UNL     1      99.210 101.967  78.643  0.00  0.00    +0.000 C 
BRANCH  29  30
ATOM     30  N   UNL     1      99.683 100.699  79.212  0.00  0.00    +0.000 N 
ATOM     31  C   UNL     1      99.096 100.116  80.314  0.00  0.00    +0.000 C 
ATOM     32  O   UNL     1      98.145 100.606  80.919  0.00  0.00    +0.000 OA
ATOM     33  H   UNL     1     100.248 100.107  78.613  0.00  0.00    +0.000 HD
BRANCH  31  34
ATOM     34  C   UNL     1      99.734  98.790  80.757  0.00  0.00    +0.000 C 
BRANCH  34  35
ATOM     35  N   UNL     1     100.825  98.441  79.827  0.00  0.00    +0.000 NA
ATOM     36  H   UNL     1     100.933  97.424  79.835  0.00  0.00    +0.000 HD
ATOM     37  H   UNL     1     101.705  98.799  80.201  0.00  0.00    +0.000 HD
ENDBRANCH  34  35
BRANCH  34  38
ATOM     38  C   UNL     1     100.295  98.978  82.170  0.00  0.00    +0.000 C 
BRANCH  38  39
ATOM     39  C   UNL     1     101.287  97.864  82.519  0.00  0.00    +0.000 C 
BRANCH  39  40
ATOM     40  O   UNL     1     102.627  98.194  82.127  0.00  0.00    +0.000 OA
BRANCH  40  41
ATOM     41  C   UNL     1     103.480  97.040  82.116  0.00  0.00    +0.000 C 
BRANCH  41  42
ATOM     42  C   UNL     1     103.910  96.728  80.690  0.00  0.00    +0.000 C 
BRANCH  42  43
ATOM     43  O   UNL     1     103.570  95.383  80.360  0.00  0.00    +0.000 OA
ATOM     44  H   UNL     1     103.311  95.404  79.421  0.00  0.00    +0.000 HD
ENDBRANCH  42  43
ENDBRANCH  41  42
ENDBRANCH  40  41
ENDBRANCH  39  40
ENDBRANCH  38  39
ENDBRANCH  34  38
ENDBRANCH  31  34
ENDBRANCH  29  30
ENDBRANCH  23  24
ENDBRANCH   1  23
TORSDOF 19
ENDMDL
