MODEL 1
REMARK VINA RESULT:      -7.1      0.000      0.000
REMARK  Name = 
REMARK  8 active torsions:
REMARK  status: ('A' for Active; 'I' for Inactive)
REMARK    1  A    between atoms: C_1  and  C_2
REMARK    2  A    between atoms: C_3  and  O_4
REMARK    3  A    between atoms: C_5  and  O_6
REMARK    4  A    between atoms: C_5  and  C_15
REMARK    5  A    between atoms: O_6  and  C_7
REMARK    6  A    between atoms: C_7  and  C_9
REMARK    7  A    between atoms: C_11  and  O_12
REMARK    8  A    between atoms: C_13  and  N_14
REMARK                            x       y       z     vdW  Elec       q    Type
REMARK                         _______ _______ _______ _____ _____    ______ ____
ROOT
ATOM      1  C   UNL     1     116.672  76.824  80.387  0.00  0.00    +0.000 C 
ATOM      2  C   UNL     1     115.247  76.382  80.299  0.00  0.00    +0.000 C 
ATOM      3  C   UNL     1     114.708  75.241  80.713  0.00  0.00    +0.000 C 
ATOM      4  C   UNL     1     113.196  75.322  80.748  0.00  0.00    +0.000 C 
ATOM      5  C   UNL     1     113.038  76.823  80.356  0.00  0.00    +0.000 C 
ATOM      6  O   UNL     1     114.323  77.335  79.884  0.00  0.00    +0.000 OA
ENDROOT
BRANCH   4   7
ATOM      7  C   UNL     1     112.474  74.206  79.833  0.00  0.00    +0.000 C 
ATOM      8  C   UNL     1     111.442  73.396  80.233  0.00  0.00    +0.000 C 
ATOM      9  C   UNL     1     110.836  72.125  79.602  0.00  0.00    +0.000 C 
ATOM     10  C   UNL     1     109.772  72.104  78.454  0.00  0.00    +0.000 C 
ATOM     11  C   UNL     1     110.457  72.374  77.144  0.00  0.00    +0.000 C 
ATOM     12  C   UNL     1     111.150  73.512  77.072  0.00  0.00    +0.000 C 
ATOM     13  C   UNL     1     112.641  73.388  77.220  0.00  0.00    +0.000 C 
ATOM     14  C   UNL     1     113.150  74.169  78.444  0.00  0.00    +0.000 C 
ENDBRANCH   4   7
BRANCH   3  15
ATOM     15  O   UNL     1     115.372  74.207  81.354  0.00  0.00    +0.000 OA
ATOM     16  H   UNL     1     116.193  74.551  81.750  0.00  0.00    +0.000 HD
ENDBRANCH   3  15
BRANCH   4  17
ATOM     17  O   UNL     1     112.763  75.087  82.144  0.00  0.00    +0.000 OA
BRANCH  17  18
ATOM     18  C   UNL     1     112.038  76.047  82.813  0.00  0.00    +0.000 C 
ATOM     19  O   UNL     1     110.908  76.418  82.484  0.00  0.00    +0.000 OA
BRANCH  18  20
ATOM     20  C   UNL     1     112.755  76.628  84.060  0.00  0.00    +0.000 C 
ATOM     21  C   UNL     1     114.166  77.234  83.786  0.00  0.00    +0.000 C 
ATOM     22  C   UNL     1     114.658  76.606  85.108  0.00  0.00    +0.000 C 
ATOM     23  C   UNL     1     113.484  75.596  84.980  0.00  0.00    +0.000 C 
BRANCH  23  24
ATOM     24  N   UNL     1     112.800  75.485  86.275  0.00  0.00    +0.000 NA
ATOM     25  H   UNL     1     113.131  76.172  86.957  0.00  0.00    +0.000 HD
ATOM     26  H   UNL     1     113.004  74.596  86.738  0.00  0.00    +0.000 HD
ENDBRANCH  23  24
BRANCH  22  27
ATOM     27  O   UNL     1     114.662  77.480  86.263  0.00  0.00    +0.000 OA
ATOM     28  H   UNL     1     113.727  77.676  86.445  0.00  0.00    +0.000 HD
ENDBRANCH  22  27
ENDBRANCH  18  20
ENDBRANCH  17  18
ENDBRANCH   4  17
TORSDOF 7
ENDMDL
MODEL 2
REMARK VINA RESULT:      -7.0      2.090      4.178
REMARK  Name = 
REMARK  8 active torsions:
REMARK  status: ('A' for Active; 'I' for Inactive)
REMARK    1  A    between atoms: C_1  and  C_2
REMARK    2  A    between atoms: C_3  and  O_4
REMARK    3  A    between atoms: C_5  and  O_6
REMARK    4  A    between atoms: C_5  and  C_15
REMARK    5  A    between atoms: O_6  and  C_7
REMARK    6  A    between atoms: C_7  and  C_9
REMARK    7  A    between atoms: C_11  and  O_12
REMARK    8  A    between atoms: C_13  and  N_14
REMARK                            x       y       z     vdW  Elec       q    Type
REMARK                         _______ _______ _______ _____ _____    ______ ____
ROOT
ATOM      1  C   UNL     1     110.766  74.508  85.596  0.00  0.00    +0.000 C 
ATOM      2  C   UNL     1     111.770  74.799  84.527  0.00  0.00    +0.000 C 
ATOM      3  C   UNL     1     111.796  75.814  83.672  0.00  0.00    +0.000 C 
ATOM      4  C   UNL     1     113.142  75.929  82.988  0.00  0.00    +0.000 C 
ATOM      5  C   UNL     1     113.887  74.796  83.757  0.00  0.00    +0.000 C 
ATOM      6  O   UNL     1     112.916  74.012  84.517  0.00  0.00    +0.000 OA
ENDROOT
BRANCH   4   7
ATOM      7  C   UNL     1     113.053  75.839  81.379  0.00  0.00    +0.000 C 
ATOM      8  C   UNL     1     113.631  76.720  80.501  0.00  0.00    +0.000 C 
ATOM      9  C   UNL     1     113.423  76.939  78.987  0.00  0.00    +0.000 C 
ATOM     10  C   UNL     1     114.102  76.104  77.851  0.00  0.00    +0.000 C 
ATOM     11  C   UNL     1     113.388  74.789  77.714  0.00  0.00    +0.000 C 
ATOM     12  C   UNL     1     113.322  74.043  78.818  0.00  0.00    +0.000 C 
ATOM     13  C   UNL     1     112.012  74.073  79.557  0.00  0.00    +0.000 C 
ATOM     14  C   UNL     1     112.185  74.623  80.983  0.00  0.00    +0.000 C 
ENDBRANCH   4   7
BRANCH   3  15
ATOM     15  O   UNL     1     110.884  76.857  83.609  0.00  0.00    +0.000 OA
ATOM     16  H   UNL     1     110.001  76.524  83.852  0.00  0.00    +0.000 HD
ENDBRANCH   3  15
BRANCH   4  17
ATOM     17  O   UNL     1     113.705  77.258  83.319  0.00  0.00    +0.000 OA
BRANCH  17  18
ATOM     18  C   UNL     1     114.988  77.361  83.810  0.00  0.00    +0.000 C 
ATOM     19  O   UNL     1     116.005  77.209  83.129  0.00  0.00    +0.000 OA
BRANCH  18  20
ATOM     20  C   UNL     1     115.062  77.716  85.318  0.00  0.00    +0.000 C 
ATOM     21  C   UNL     1     116.261  78.630  85.721  0.00  0.00    +0.000 C 
ATOM     22  C   UNL     1     116.438  77.780  86.998  0.00  0.00    +0.000 C 
ATOM     23  C   UNL     1     115.698  76.636  86.252  0.00  0.00    +0.000 C 
BRANCH  23  24
ATOM     24  N   UNL     1     114.680  76.059  87.141  0.00  0.00    +0.000 NA
ATOM     25  H   UNL     1     114.941  75.135  87.493  0.00  0.00    +0.000 HD
ATOM     26  H   UNL     1     113.806  75.869  86.644  0.00  0.00    +0.000 HD
ENDBRANCH  23  24
BRANCH  22  27
ATOM     27  O   UNL     1     115.819  78.302  88.199  0.00  0.00    +0.000 OA
ATOM     28  H   UNL     1     116.243  77.830  88.937  0.00  0.00    +0.000 HD
ENDBRANCH  22  27
ENDBRANCH  18  20
ENDBRANCH  17  18
ENDBRANCH   4  17
TORSDOF 7
ENDMDL
MODEL 3
REMARK VINA RESULT:      -6.8      2.152      3.262
REMARK  Name = 
REMARK  8 active torsions:
REMARK  status: ('A' for Active; 'I' for Inactive)
REMARK    1  A    between atoms: C_1  and  C_2
REMARK    2  A    between atoms: C_3  and  O_4
REMARK    3  A    between atoms: C_5  and  O_6
REMARK    4  A    between atoms: C_5  and  C_15
REMARK    5  A    between atoms: O_6  and  C_7
REMARK    6  A    between atoms: C_7  and  C_9
REMARK    7  A    between atoms: C_11  and  O_12
REMARK    8  A    between atoms: C_13  and  N_14
REMARK                            x       y       z     vdW  Elec       q    Type
REMARK                         _______ _______ _______ _____ _____    ______ ____
ROOT
ATOM      1  C   UNL     1     115.054  70.946  82.818  0.00  0.00    +0.000 C 
ATOM      2  C   UNL     1     114.513  72.030  81.942  0.00  0.00    +0.000 C 
ATOM      3  C   UNL     1     113.290  72.155  81.441  0.00  0.00    +0.000 C 
ATOM      4  C   UNL     1     113.053  73.547  80.895  0.00  0.00    +0.000 C 
ATOM      5  C   UNL     1     114.409  74.192  81.317  0.00  0.00    +0.000 C 
ATOM      6  O   UNL     1     115.327  73.141  81.750  0.00  0.00    +0.000 OA
ENDROOT
BRANCH   4   7
ATOM      7  C   UNL     1     112.646  73.562  79.333  0.00  0.00    +0.000 C 
ATOM      8  C   UNL     1     113.457  73.969  78.305  0.00  0.00    +0.000 C 
ATOM      9  C   UNL     1     113.148  74.302  76.830  0.00  0.00    +0.000 C 
ATOM     10  C   UNL     1     113.015  73.255  75.674  0.00  0.00    +0.000 C 
ATOM     11  C   UNL     1     111.668  72.595  75.761  0.00  0.00    +0.000 C 
ATOM     12  C   UNL     1     111.384  71.999  76.921  0.00  0.00    +0.000 C 
ATOM     13  C   UNL     1     110.481  72.762  77.851  0.00  0.00    +0.000 C 
ATOM     14  C   UNL     1     111.186  73.078  79.182  0.00  0.00    +0.000 C 
ENDBRANCH   4   7
BRANCH   3  15
ATOM     15  O   UNL     1     112.225  71.293  81.655  0.00  0.00    +0.000 OA
ATOM     16  H   UNL     1     111.481  71.793  82.036  0.00  0.00    +0.000 HD
ENDBRANCH   3  15
BRANCH   4  17
ATOM     17  O   UNL     1     111.924  74.141  81.645  0.00  0.00    +0.000 OA
BRANCH  17  18
ATOM     18  C   UNL     1     111.990  75.449  82.070  0.00  0.00    +0.000 C 
ATOM     19  O   UNL     1     111.963  76.426  81.317  0.00  0.00    +0.000 OA
BRANCH  18  20
ATOM     20  C   UNL     1     112.077  75.611  83.610  0.00  0.00    +0.000 C 
ATOM     21  C   UNL     1     112.520  74.330  84.383  0.00  0.00    +0.000 C 
ATOM     22  C   UNL     1     111.476  74.662  85.470  0.00  0.00    +0.000 C 
ATOM     23  C   UNL     1     110.729  75.499  84.394  0.00  0.00    +0.000 C 
BRANCH  23  24
ATOM     24  N   UNL     1     110.356  76.799  84.967  0.00  0.00    +0.000 NA
ATOM     25  H   UNL     1     111.153  77.295  85.376  0.00  0.00    +0.000 HD
ATOM     26  H   UNL     1     109.726  76.695  85.767  0.00  0.00    +0.000 HD
ENDBRANCH  23  24
BRANCH  22  27
ATOM     27  O   UNL     1     111.972  75.366  86.635  0.00  0.00    +0.000 OA
ATOM     28  H   UNL     1     112.198  76.259  86.323  0.00  0.00    +0.000 HD
ENDBRANCH  22  27
ENDBRANCH  18  20
ENDBRANCH  17  18
ENDBRANCH   4  17
TORSDOF 7
ENDMDL
MODEL 4
REMARK VINA RESULT:      -6.7      2.016      3.106
REMARK  Name = 
REMARK  8 active torsions:
REMARK  status: ('A' for Active; 'I' for Inactive)
REMARK    1  A    between atoms: C_1  and  C_2
REMARK    2  A    between atoms: C_3  and  O_4
REMARK    3  A    between atoms: C_5  and  O_6
REMARK    4  A    between atoms: C_5  and  C_15
REMARK    5  A    between atoms: O_6  and  C_7
REMARK    6  A    between atoms: C_7  and  C_9
REMARK    7  A    between atoms: C_11  and  O_12
REMARK    8  A    between atoms: C_13  and  N_14
REMARK                            x       y       z     vdW  Elec       q    Type
REMARK                         _______ _______ _______ _____ _____    ______ ____
ROOT
ATOM      1  C   UNL     1     117.358  71.845  81.232  0.00  0.00    +0.000 C 
ATOM      2  C   UNL     1     116.089  72.602  81.007  0.00  0.00    +0.000 C 
ATOM      3  C   UNL     1     114.855  72.127  80.881  0.00  0.00    +0.000 C 
ATOM      4  C   UNL     1     113.822  73.227  81.007  0.00  0.00    +0.000 C 
ATOM      5  C   UNL     1     114.783  74.407  81.344  0.00  0.00    +0.000 C 
ATOM      6  O   UNL     1     116.162  73.987  81.106  0.00  0.00    +0.000 OA
ENDROOT
BRANCH   4   7
ATOM      7  C   UNL     1     112.865  73.358  79.714  0.00  0.00    +0.000 C 
ATOM      8  C   UNL     1     113.276  73.708  78.453  0.00  0.00    +0.000 C 
ATOM      9  C   UNL     1     112.483  74.140  77.202  0.00  0.00    +0.000 C 
ATOM     10  C   UNL     1     111.795  73.168  76.187  0.00  0.00    +0.000 C 
ATOM     11  C   UNL     1     110.506  72.671  76.779  0.00  0.00    +0.000 C 
ATOM     12  C   UNL     1     110.603  72.064  77.963  0.00  0.00    +0.000 C 
ATOM     13  C   UNL     1     110.220  72.888  79.161  0.00  0.00    +0.000 C 
ATOM     14  C   UNL     1     111.406  73.060  80.126  0.00  0.00    +0.000 C 
ENDBRANCH   4   7
BRANCH   3  15
ATOM     15  O   UNL     1     114.477  70.795  80.957  0.00  0.00    +0.000 OA
ATOM     16  H   UNL     1     114.936  70.292  80.260  0.00  0.00    +0.000 HD
ENDBRANCH   3  15
BRANCH   4  17
ATOM     17  O   UNL     1     112.953  72.900  82.160  0.00  0.00    +0.000 OA
BRANCH  17  18
ATOM     18  C   UNL     1     113.260  73.381  83.413  0.00  0.00    +0.000 C 
ATOM     19  O   UNL     1     114.296  73.110  84.026  0.00  0.00    +0.000 OA
BRANCH  18  20
ATOM     20  C   UNL     1     112.190  74.334  84.006  0.00  0.00    +0.000 C 
ATOM     21  C   UNL     1     111.631  75.398  83.010  0.00  0.00    +0.000 C 
ATOM     22  C   UNL     1     111.660  76.437  84.151  0.00  0.00    +0.000 C 
ATOM     23  C   UNL     1     112.727  75.542  84.841  0.00  0.00    +0.000 C 
BRANCH  23  24
ATOM     24  N   UNL     1     112.381  75.383  86.259  0.00  0.00    +0.000 NA
ATOM     25  H   UNL     1     112.796  76.107  86.852  0.00  0.00    +0.000 HD
ATOM     26  H   UNL     1     112.772  74.523  86.652  0.00  0.00    +0.000 HD
ENDBRANCH  23  24
BRANCH  22  27
ATOM     27  O   UNL     1     110.410  76.643  84.854  0.00  0.00    +0.000 OA
ATOM     28  H   UNL     1     110.268  77.605  84.857  0.00  0.00    +0.000 HD
ENDBRANCH  22  27
ENDBRANCH  18  20
ENDBRANCH  17  18
ENDBRANCH   4  17
TORSDOF 7
ENDMDL
MODEL 5
REMARK VINA RESULT:      -6.6      1.698      2.034
REMARK  Name = 
REMARK  8 active torsions:
REMARK  status: ('A' for Active; 'I' for Inactive)
REMARK    1  A    between atoms: C_1  and  C_2
REMARK    2  A    between atoms: C_3  and  O_4
REMARK    3  A    between atoms: C_5  and  O_6
REMARK    4  A    between atoms: C_5  and  C_15
REMARK    5  A    between atoms: O_6  and  C_7
REMARK    6  A    between atoms: C_7  and  C_9
REMARK    7  A    between atoms: C_11  and  O_12
REMARK    8  A    between atoms: C_13  and  N_14
REMARK                            x       y       z     vdW  Elec       q    Type
REMARK                         _______ _______ _______ _____ _____    ______ ____
ROOT
ATOM      1  C   UNL     1     116.658  77.425  78.255  0.00  0.00    +0.000 C 
ATOM      2  C   UNL     1     115.362  76.844  78.720  0.00  0.00    +0.000 C 
ATOM      3  C   UNL     1     115.145  75.677  79.315  0.00  0.00    +0.000 C 
ATOM      4  C   UNL     1     113.761  75.614  79.925  0.00  0.00    +0.000 C 
ATOM      5  C   UNL     1     113.307  77.074  79.616  0.00  0.00    +0.000 C 
ATOM      6  O   UNL     1     114.254  77.684  78.686  0.00  0.00    +0.000 OA
ENDROOT
BRANCH   4   7
ATOM      7  C   UNL     1     112.867  74.394  79.361  0.00  0.00    +0.000 C 
ATOM      8  C   UNL     1     111.892  73.733  80.063  0.00  0.00    +0.000 C 
ATOM      9  C   UNL     1     111.156  72.405  79.787  0.00  0.00    +0.000 C 
ATOM     10  C   UNL     1     109.919  72.236  78.842  0.00  0.00    +0.000 C 
ATOM     11  C   UNL     1     110.389  72.222  77.415  0.00  0.00    +0.000 C 
ATOM     12  C   UNL     1     111.092  73.285  77.021  0.00  0.00    +0.000 C 
ATOM     13  C   UNL     1     112.584  73.103  76.958  0.00  0.00    +0.000 C 
ATOM     14  C   UNL     1     113.307  74.064  77.917  0.00  0.00    +0.000 C 
ENDBRANCH   4   7
BRANCH   3  15
ATOM     15  O   UNL     1     116.108  74.741  79.659  0.00  0.00    +0.000 OA
ATOM     16  H   UNL     1     116.035  73.974  79.064  0.00  0.00    +0.000 HD
ENDBRANCH   3  15
BRANCH   4  17
ATOM     17  O   UNL     1     113.918  75.402  81.382  0.00  0.00    +0.000 OA
BRANCH  17  18
ATOM     18  C   UNL     1     114.033  76.482  82.228  0.00  0.00    +0.000 C 
ATOM     19  O   UNL     1     114.921  77.335  82.148  0.00  0.00    +0.000 OA
BRANCH  18  20
ATOM     20  C   UNL     1     112.921  76.563  83.306  0.00  0.00    +0.000 C 
ATOM     21  C   UNL     1     113.208  75.761  84.612  0.00  0.00    +0.000 C 
ATOM     22  C   UNL     1     111.727  75.325  84.635  0.00  0.00    +0.000 C 
ATOM     23  C   UNL     1     111.696  75.611  83.107  0.00  0.00    +0.000 C 
BRANCH  23  24
ATOM     24  N   UNL     1     110.489  76.384  82.786  0.00  0.00    +0.000 NA
ATOM     25  H   UNL     1     110.656  77.393  82.777  0.00  0.00    +0.000 HD
ATOM     26  H   UNL     1     109.770  76.284  83.507  0.00  0.00    +0.000 HD
ENDBRANCH  23  24
BRANCH  22  27
ATOM     27  O   UNL     1     110.847  76.109  85.477  0.00  0.00    +0.000 OA
ATOM     28  H   UNL     1     110.994  77.034  85.217  0.00  0.00    +0.000 HD
ENDBRANCH  22  27
ENDBRANCH  18  20
ENDBRANCH  17  18
ENDBRANCH   4  17
TORSDOF 7
ENDMDL
MODEL 6
REMARK VINA RESULT:      -6.5      3.713      6.942
REMARK  Name = 
REMARK  8 active torsions:
REMARK  status: ('A' for Active; 'I' for Inactive)
REMARK    1  A    between atoms: C_1  and  C_2
REMARK    2  A    between atoms: C_3  and  O_4
REMARK    3  A    between atoms: C_5  and  O_6
REMARK    4  A    between atoms: C_5  and  C_15
REMARK    5  A    between atoms: O_6  and  C_7
REMARK    6  A    between atoms: C_7  and  C_9
REMARK    7  A    between atoms: C_11  and  O_12
REMARK    8  A    between atoms: C_13  and  N_14
REMARK                            x       y       z     vdW  Elec       q    Type
REMARK                         _______ _______ _______ _____ _____    ______ ____
ROOT
ATOM      1  C   UNL     1     116.048  71.940  78.093  0.00  0.00    +0.000 C 
ATOM      2  C   UNL     1     114.871  72.249  78.962  0.00  0.00    +0.000 C 
ATOM      3  C   UNL     1     114.207  73.393  79.078  0.00  0.00    +0.000 C 
ATOM      4  C   UNL     1     112.887  73.197  79.795  0.00  0.00    +0.000 C 
ATOM      5  C   UNL     1     112.937  71.646  79.948  0.00  0.00    +0.000 C 
ATOM      6  O   UNL     1     114.279  71.173  79.614  0.00  0.00    +0.000 OA
ENDROOT
BRANCH   4   7
ATOM      7  C   UNL     1     112.742  74.099  81.126  0.00  0.00    +0.000 C 
ATOM      8  C   UNL     1     112.072  75.292  81.208  0.00  0.00    +0.000 C 
ATOM      9  C   UNL     1     112.068  76.390  82.292  0.00  0.00    +0.000 C 
ATOM     10  C   UNL     1     111.207  76.367  83.600  0.00  0.00    +0.000 C 
ATOM     11  C   UNL     1     111.854  75.446  84.597  0.00  0.00    +0.000 C 
ATOM     12  C   UNL     1     112.055  74.192  84.188  0.00  0.00    +0.000 C 
ATOM     13  C   UNL     1     113.457  73.854  83.763  0.00  0.00    +0.000 C 
ATOM     14  C   UNL     1     113.507  73.423  82.286  0.00  0.00    +0.000 C 
ENDBRANCH   4   7
BRANCH   3  15
ATOM     15  O   UNL     1     114.461  74.562  78.379  0.00  0.00    +0.000 OA
ATOM     16  H   UNL     1     114.663  74.343  77.451  0.00  0.00    +0.000 HD
ENDBRANCH   3  15
BRANCH   4  17
ATOM     17  O   UNL     1     111.806  73.607  78.871  0.00  0.00    +0.000 OA
BRANCH  17  18
ATOM     18  C   UNL     1     110.968  72.660  78.326  0.00  0.00    +0.000 C 
ATOM     19  O   UNL     1     110.105  72.048  78.960  0.00  0.00    +0.000 OA
BRANCH  18  20
ATOM     20  C   UNL     1     111.178  72.430  76.806  0.00  0.00    +0.000 C 
ATOM     21  C   UNL     1     112.249  71.354  76.444  0.00  0.00    +0.000 C 
ATOM     22  C   UNL     1     112.732  72.266  75.295  0.00  0.00    +0.000 C 
ATOM     23  C   UNL     1     112.104  73.455  76.074  0.00  0.00    +0.000 C 
BRANCH  23  24
ATOM     24  N   UNL     1     111.323  74.282  75.143  0.00  0.00    +0.000 NA
ATOM     25  H   UNL     1     110.404  74.535  75.515  0.00  0.00    +0.000 HD
ATOM     26  H   UNL     1     111.084  73.771  74.289  0.00  0.00    +0.000 HD
ENDBRANCH  23  24
BRANCH  22  27
ATOM     27  O   UNL     1     112.196  71.972  73.982  0.00  0.00    +0.000 OA
ATOM     28  H   UNL     1     111.243  71.831  74.115  0.00  0.00    +0.000 HD
ENDBRANCH  22  27
ENDBRANCH  18  20
ENDBRANCH  17  18
ENDBRANCH   4  17
TORSDOF 7
ENDMDL
MODEL 7
REMARK VINA RESULT:      -6.3      2.733      5.887
REMARK  Name = 
REMARK  8 active torsions:
REMARK  status: ('A' for Active; 'I' for Inactive)
REMARK    1  A    between atoms: C_1  and  C_2
REMARK    2  A    between atoms: C_3  and  O_4
REMARK    3  A    between atoms: C_5  and  O_6
REMARK    4  A    between atoms: C_5  and  C_15
REMARK    5  A    between atoms: O_6  and  C_7
REMARK    6  A    between atoms: C_7  and  C_9
REMARK    7  A    between atoms: C_11  and  O_12
REMARK    8  A    between atoms: C_13  and  N_14
REMARK                            x       y       z     vdW  Elec       q    Type
REMARK                         _______ _______ _______ _____ _____    ______ ____
ROOT
ATOM      1  C   UNL     1     116.716  77.110  78.092  0.00  0.00    +0.000 C 
ATOM      2  C   UNL     1     115.796  76.227  78.873  0.00  0.00    +0.000 C 
ATOM      3  C   UNL     1     114.553  76.474  79.271  0.00  0.00    +0.000 C 
ATOM      4  C   UNL     1     113.857  75.211  79.732  0.00  0.00    +0.000 C 
ATOM      5  C   UNL     1     114.983  74.189  79.387  0.00  0.00    +0.000 C 
ATOM      6  O   UNL     1     116.212  74.915  79.075  0.00  0.00    +0.000 OA
ENDROOT
BRANCH   4   7
ATOM      7  C   UNL     1     113.329  75.290  81.255  0.00  0.00    +0.000 C 
ATOM      8  C   UNL     1     112.410  76.189  81.732  0.00  0.00    +0.000 C 
ATOM      9  C   UNL     1     112.010  76.578  83.171  0.00  0.00    +0.000 C 
ATOM     10  C   UNL     1     110.997  75.794  84.071  0.00  0.00    +0.000 C 
ATOM     11  C   UNL     1     111.679  74.579  84.635  0.00  0.00    +0.000 C 
ATOM     12  C   UNL     1     112.205  73.738  83.742  0.00  0.00    +0.000 C 
ATOM     13  C   UNL     1     113.694  73.830  83.548  0.00  0.00    +0.000 C 
ATOM     14  C   UNL     1     114.048  74.215  82.101  0.00  0.00    +0.000 C 
ENDBRANCH   4   7
BRANCH   3  15
ATOM     15  O   UNL     1     113.825  77.625  79.016  0.00  0.00    +0.000 OA
ATOM     16  H   UNL     1     112.934  77.379  78.709  0.00  0.00    +0.000 HD
ENDBRANCH   3  15
BRANCH   4  17
ATOM     17  O   UNL     1     112.671  75.008  78.870  0.00  0.00    +0.000 OA
BRANCH  17  18
ATOM     18  C   UNL     1     112.715  74.099  77.837  0.00  0.00    +0.000 C 
ATOM     19  O   UNL     1     113.367  74.256  76.801  0.00  0.00    +0.000 OA
BRANCH  18  20
ATOM     20  C   UNL     1     111.883  72.815  78.088  0.00  0.00    +0.000 C 
ATOM     21  C   UNL     1     110.531  72.743  77.313  0.00  0.00    +0.000 C 
ATOM     22  C   UNL     1     109.874  72.142  78.574  0.00  0.00    +0.000 C 
ATOM     23  C   UNL     1     111.022  72.794  79.393  0.00  0.00    +0.000 C 
BRANCH  23  24
ATOM     24  N   UNL     1     111.554  71.811  80.347  0.00  0.00    +0.000 NA
ATOM     25  H   UNL     1     111.310  72.028  81.316  0.00  0.00    +0.000 HD
ATOM     26  H   UNL     1     112.577  71.817  80.368  0.00  0.00    +0.000 HD
ENDBRANCH  23  24
BRANCH  22  27
ATOM     27  O   UNL     1     109.769  70.697  78.608  0.00  0.00    +0.000 OA
ATOM     28  H   UNL     1     109.620  70.425  77.686  0.00  0.00    +0.000 HD
ENDBRANCH  22  27
ENDBRANCH  18  20
ENDBRANCH  17  18
ENDBRANCH   4  17
TORSDOF 7
ENDMDL
MODEL 8
REMARK VINA RESULT:      -6.3     30.856     32.496
REMARK  Name = 
REMARK  8 active torsions:
REMARK  status: ('A' for Active; 'I' for Inactive)
REMARK    1  A    between atoms: C_1  and  C_2
REMARK    2  A    between atoms: C_3  and  O_4
REMARK    3  A    between atoms: C_5  and  O_6
REMARK    4  A    between atoms: C_5  and  C_15
REMARK    5  A    between atoms: O_6  and  C_7
REMARK    6  A    between atoms: C_7  and  C_9
REMARK    7  A    between atoms: C_11  and  O_12
REMARK    8  A    between atoms: C_13  and  N_14
REMARK                            x       y       z     vdW  Elec       q    Type
REMARK                         _______ _______ _______ _____ _____    ______ ____
ROOT
ATOM      1  C   UNL     1     103.119 107.289  83.059  0.00  0.00    +0.000 C 
ATOM      2  C   UNL     1     102.986 106.199  82.046  0.00  0.00    +0.000 C 
ATOM      3  C   UNL     1     102.522 106.278  80.803  0.00  0.00    +0.000 C 
ATOM      4  C   UNL     1     102.868 105.039  80.003  0.00  0.00    +0.000 C 
ATOM      5  C   UNL     1     103.731 104.307  81.076  0.00  0.00    +0.000 C 
ATOM      6  O   UNL     1     103.567 104.977  82.364  0.00  0.00    +0.000 OA
ENDROOT
BRANCH   4   7
ATOM      7  C   UNL     1     101.574 104.281  79.406  0.00  0.00    +0.000 C 
ATOM      8  C   UNL     1     101.131 104.366  78.111  0.00  0.00    +0.000 C 
ATOM      9  C   UNL     1      99.798 103.946  77.457  0.00  0.00    +0.000 C 
ATOM     10  C   UNL     1      99.442 102.499  76.977  0.00  0.00    +0.000 C 
ATOM     11  C   UNL     1      99.069 101.664  78.170  0.00  0.00    +0.000 C 
ATOM     12  C   UNL     1      99.985 101.587  79.137  0.00  0.00    +0.000 C 
ATOM     13  C   UNL     1      99.749 102.459  80.340  0.00  0.00    +0.000 C 
ATOM     14  C   UNL     1     100.892 103.471  80.531  0.00  0.00    +0.000 C 
ENDBRANCH   4   7
BRANCH   3  15
ATOM     15  O   UNL     1     102.077 107.425  80.166  0.00  0.00    +0.000 OA
ATOM     16  H   UNL     1     101.392 107.849  80.713  0.00  0.00    +0.000 HD
ENDBRANCH   3  15
BRANCH   4  17
ATOM     17  O   UNL     1     103.695 105.462  78.851  0.00  0.00    +0.000 OA
BRANCH  17  18
ATOM     18  C   UNL     1     104.878 106.135  79.061  0.00  0.00    +0.000 C 
ATOM     19  O   UNL     1     105.771 105.750  79.820  0.00  0.00    +0.000 OA
BRANCH  18  20
ATOM     20  C   UNL     1     105.020 107.438  78.231  0.00  0.00    +0.000 C 
ATOM     21  C   UNL     1     106.465 107.745  77.729  0.00  0.00    +0.000 C 
ATOM     22  C   UNL     1     106.230 109.236  78.056  0.00  0.00    +0.000 C 
ATOM     23  C   UNL     1     105.127 108.768  79.047  0.00  0.00    +0.000 C 
BRANCH  23  24
ATOM     24  N   UNL     1     103.925 109.590  78.853  0.00  0.00    +0.000 NA
ATOM     25  H   UNL     1     104.051 110.314  78.142  0.00  0.00    +0.000 HD
ATOM     26  H   UNL     1     103.699 110.136  79.689  0.00  0.00    +0.000 HD
ENDBRANCH  23  24
BRANCH  22  27
ATOM     27  O   UNL     1     105.817 110.072  76.948  0.00  0.00    +0.000 OA
ATOM     28  H   UNL     1     104.942 110.418  77.193  0.00  0.00    +0.000 HD
ENDBRANCH  22  27
ENDBRANCH  18  20
ENDBRANCH  17  18
ENDBRANCH   4  17
TORSDOF 7
ENDMDL
MODEL 9
REMARK VINA RESULT:      -6.2      1.513      1.879
REMARK  Name = 
REMARK  8 active torsions:
REMARK  status: ('A' for Active; 'I' for Inactive)
REMARK    1  A    between atoms: C_1  and  C_2
REMARK    2  A    between atoms: C_3  and  O_4
REMARK    3  A    between atoms: C_5  and  O_6
REMARK    4  A    between atoms: C_5  and  C_15
REMARK    5  A    between atoms: O_6  and  C_7
REMARK    6  A    between atoms: C_7  and  C_9
REMARK    7  A    between atoms: C_11  and  O_12
REMARK    8  A    between atoms: C_13  and  N_14
REMARK                            x       y       z     vdW  Elec       q    Type
REMARK                         _______ _______ _______ _____ _____    ______ ____
ROOT
ATOM      1  C   UNL     1     116.985  73.162  82.991  0.00  0.00    +0.000 C 
ATOM      2  C   UNL     1     115.778  73.579  82.215  0.00  0.00    +0.000 C 
ATOM      3  C   UNL     1     114.532  73.130  82.320  0.00  0.00    +0.000 C 
ATOM      4  C   UNL     1     113.554  74.038  81.605  0.00  0.00    +0.000 C 
ATOM      5  C   UNL     1     114.551  75.156  81.174  0.00  0.00    +0.000 C 
ATOM      6  O   UNL     1     115.919  74.691  81.392  0.00  0.00    +0.000 OA
ENDROOT
BRANCH   4   7
ATOM      7  C   UNL     1     112.700  73.285  80.460  0.00  0.00    +0.000 C 
ATOM      8  C   UNL     1     111.340  73.362  80.303  0.00  0.00    +0.000 C 
ATOM      9  C   UNL     1     110.357  72.517  79.466  0.00  0.00    +0.000 C 
ATOM     10  C   UNL     1     110.063  72.718  77.941  0.00  0.00    +0.000 C 
ATOM     11  C   UNL     1     111.188  72.124  77.141  0.00  0.00    +0.000 C 
ATOM     12  C   UNL     1     112.408  72.592  77.412  0.00  0.00    +0.000 C 
ATOM     13  C   UNL     1     113.271  71.719  78.282  0.00  0.00    +0.000 C 
ATOM     14  C   UNL     1     113.652  72.433  79.590  0.00  0.00    +0.000 C 
ENDBRANCH   4   7
BRANCH   3  15
ATOM     15  O   UNL     1     114.079  72.172  83.212  0.00  0.00    +0.000 OA
ATOM     16  H   UNL     1     114.132  71.294  82.794  0.00  0.00    +0.000 HD
ENDBRANCH   3  15
BRANCH   4  17
ATOM     17  O   UNL     1     112.589  74.541  82.607  0.00  0.00    +0.000 OA
BRANCH  17  18
ATOM     18  C   UNL     1     112.341  75.892  82.709  0.00  0.00    +0.000 C 
ATOM     19  O   UNL     1     111.689  76.542  81.888  0.00  0.00    +0.000 OA
BRANCH  18  20
ATOM     20  C   UNL     1     112.936  76.550  83.981  0.00  0.00    +0.000 C 
ATOM     21  C   UNL     1     114.323  77.238  83.780  0.00  0.00    +0.000 C 
ATOM     22  C   UNL     1     114.765  76.678  85.149  0.00  0.00    +0.000 C 
ATOM     23  C   UNL     1     113.667  75.592  84.978  0.00  0.00    +0.000 C 
BRANCH  23  24
ATOM     24  N   UNL     1     112.906  75.473  86.229  0.00  0.00    +0.000 NA
ATOM     25  H   UNL     1     112.440  76.344  86.494  0.00  0.00    +0.000 HD
ATOM     26  H   UNL     1     113.518  75.296  87.030  0.00  0.00    +0.000 HD
ENDBRANCH  23  24
BRANCH  22  27
ATOM     27  O   UNL     1     114.638  77.581  86.275  0.00  0.00    +0.000 OA
ATOM     28  H   UNL     1     113.803  78.059  86.133  0.00  0.00    +0.000 HD
ENDBRANCH  22  27
ENDBRANCH  18  20
ENDBRANCH  17  18
ENDBRANCH   4  17
TORSDOF 7
ENDMDL
