MODEL 1
REMARK VINA RESULT:      -6.2      0.000      0.000
REMARK  Name = 
REMARK  20 active torsions:
REMARK  status: ('A' for Active; 'I' for Inactive)
REMARK    1  A    between atoms: C_1  and  C_2
REMARK    2  A    between atoms: C_2  and  C_3
REMARK    3  A    between atoms: C_7  and  O_8
REMARK    4  A    between atoms: C_7  and  C_20
REMARK    5  A    between atoms: O_8  and  C_9
REMARK    6  A    between atoms: C_9  and  C_11
REMARK    7  A    between atoms: C_11  and  O_12
REMARK    8  A    between atoms: O_12  and  C_13
REMARK    9  A    between atoms: C_18  and  O_19
REMARK   10  A    between atoms: C_20  and  O_22
REMARK   11  A    between atoms: O_22  and  C_23
REMARK   12  A    between atoms: C_28  and  N_29
REMARK   13  A    between atoms: C_30  and  C_32
REMARK   14  A    between atoms: C_32  and  N_33
REMARK   15  A    between atoms: C_32  and  C_34
REMARK   16  A    between atoms: C_34  and  C_35
REMARK   17  A    between atoms: C_35  and  O_36
REMARK   18  A    between atoms: O_36  and  C_37
REMARK   19  A    between atoms: C_37  and  C_38
REMARK   20  A    between atoms: C_38  and  O_39
REMARK                            x       y       z     vdW  Elec       q    Type
REMARK                         _______ _______ _______ _____ _____    ______ ____
ROOT
ATOM      1  C   UNL     1     101.975 103.193  80.608  0.00  0.00    +0.000 C 
ATOM      2  O   UNL     1     102.329 102.024  80.681  0.00  0.00    +0.000 OA
ENDROOT
BRANCH   1   7
ATOM      3  C   UNL     1     103.227 104.125  82.643  0.00  0.00    +0.000 C 
ATOM      4  C   UNL     1     104.518 104.913  82.824  0.00  0.00    +0.000 C 
ATOM      5  C   UNL     1     105.229 104.781  81.487  0.00  0.00    +0.000 C 
ATOM      6  C   UNL     1     104.187 104.345  80.467  0.00  0.00    +0.000 C 
ATOM      7  C   UNL     1     102.792 104.430  81.161  0.00  0.00    +0.000 C 
BRANCH   3   9
ATOM      8  C   UNL     1     102.602 105.663  84.596  0.00  0.00    +0.000 C 
ATOM      9  C   UNL     1     102.196 104.464  83.740  0.00  0.00    +0.000 C 
ENDBRANCH   3   9
BRANCH   7  10
ATOM     10  O   UNL     1     102.336 105.810  81.129  0.00  0.00    +0.000 OA
BRANCH  10  11
ATOM     11  C   UNL     1     102.686 106.719  80.168  0.00  0.00    +0.000 C 
ATOM     12  O   UNL     1     102.375 106.668  78.983  0.00  0.00    +0.000 OA
BRANCH  11  13
ATOM     13  C   UNL     1     103.466 107.937  80.715  0.00  0.00    +0.000 C 
BRANCH  13  14
ATOM     14  O   UNL     1     104.275 108.671  79.802  0.00  0.00    +0.000 OA
BRANCH  14  15
ATOM     15  C   UNL     1     105.481 107.970  79.401  0.00  0.00    +0.000 C 
ATOM     16  C   UNL     1     106.733 108.401  80.180  0.00  0.00    +0.000 C 
ATOM     17  C   UNL     1     107.126 109.859  79.932  0.00  0.00    +0.000 C 
ATOM     18  C   UNL     1     107.205 110.226  78.451  0.00  0.00    +0.000 C 
ATOM     19  C   UNL     1     106.010 109.729  77.644  0.00  0.00    +0.000 C 
ATOM     20  C   UNL     1     105.722 108.250  77.903  0.00  0.00    +0.000 C 
BRANCH  20  21
ATOM     21  O   UNL     1     104.579 107.855  77.149  0.00  0.00    +0.000 OA
ATOM     22  H   UNL     1     103.898 108.534  77.332  0.00  0.00    +0.000 HD
ENDBRANCH  20  21
ENDBRANCH  14  15
ENDBRANCH  13  14
ENDBRANCH  11  13
ENDBRANCH  10  11
ENDBRANCH   7  10
ENDBRANCH   1   7
BRANCH   1  23
ATOM     23  O   UNL     1     100.832 103.595  79.965  0.00  0.00    +0.000 OA
BRANCH  23  24
ATOM     24  C   UNL     1     100.556 103.101  78.623  0.00  0.00    +0.000 C 
ATOM     25  C   UNL     1     100.159 104.280  77.723  0.00  0.00    +0.000 C 
ATOM     26  C   UNL     1      99.408 103.835  76.481  0.00  0.00    +0.000 C 
ATOM     27  O   UNL     1      98.256 103.088  76.861  0.00  0.00    +0.000 OA
ATOM     28  C   UNL     1      98.633 101.843  77.442  0.00  0.00    +0.000 C 
ATOM     29  C   UNL     1      99.423 102.036  78.748  0.00  0.00    +0.000 C 
BRANCH  29  30
ATOM     30  N   UNL     1      99.868 100.746  79.302  0.00  0.00    +0.000 N 
ATOM     31  C   UNL     1      99.439 100.263  80.522  0.00  0.00    +0.000 C 
ATOM     32  O   UNL     1      98.774 100.926  81.305  0.00  0.00    +0.000 OA
ATOM     33  H   UNL     1     100.311 100.100  78.656  0.00  0.00    +0.000 HD
BRANCH  31  34
ATOM     34  C   UNL     1      99.912  98.814  80.851  0.00  0.00    +0.000 C 
BRANCH  34  35
ATOM     35  N   UNL     1     100.937  98.406  79.868  0.00  0.00    +0.000 NA
ATOM     36  H   UNL     1     100.516  98.424  78.937  0.00  0.00    +0.000 HD
ATOM     37  H   UNL     1     101.202  97.437  80.035  0.00  0.00    +0.000 HD
ENDBRANCH  34  35
BRANCH  34  38
ATOM     38  C   UNL     1     100.529  98.728  82.259  0.00  0.00    +0.000 C 
BRANCH  38  39
ATOM     39  C   UNL     1     101.605  97.658  82.364  0.00  0.00    +0.000 C 
BRANCH  39  40
ATOM     40  O   UNL     1     102.886  98.226  82.087  0.00  0.00    +0.000 OA
BRANCH  40  41
ATOM     41  C   UNL     1     103.913  97.228  81.964  0.00  0.00    +0.000 C 
BRANCH  41  42
ATOM     42  C   UNL     1     103.515  96.174  80.947  0.00  0.00    +0.000 C 
BRANCH  42  43
ATOM     43  O   UNL     1     103.732  96.746  79.679  0.00  0.00    +0.000 OA
ATOM     44  H   UNL     1     103.754  96.023  79.019  0.00  0.00    +0.000 HD
ENDBRANCH  42  43
ENDBRANCH  41  42
ENDBRANCH  40  41
ENDBRANCH  39  40
ENDBRANCH  38  39
ENDBRANCH  34  38
ENDBRANCH  31  34
ENDBRANCH  29  30
ENDBRANCH  23  24
ENDBRANCH   1  23
TORSDOF 19
ENDMDL
MODEL 2
REMARK VINA RESULT:      -6.1     28.996     31.004
REMARK  Name = 
REMARK  20 active torsions:
REMARK  status: ('A' for Active; 'I' for Inactive)
REMARK    1  A    between atoms: C_1  and  C_2
REMARK    2  A    between atoms: C_2  and  C_3
REMARK    3  A    between atoms: C_7  and  O_8
REMARK    4  A    between atoms: C_7  and  C_20
REMARK    5  A    between atoms: O_8  and  C_9
REMARK    6  A    between atoms: C_9  and  C_11
REMARK    7  A    between atoms: C_11  and  O_12
REMARK    8  A    between atoms: O_12  and  C_13
REMARK    9  A    between atoms: C_18  and  O_19
REMARK   10  A    between atoms: C_20  and  O_22
REMARK   11  A    between atoms: O_22  and  C_23
REMARK   12  A    between atoms: C_28  and  N_29
REMARK   13  A    between atoms: C_30  and  C_32
REMARK   14  A    between atoms: C_32  and  N_33
REMARK   15  A    between atoms: C_32  and  C_34
REMARK   16  A    between atoms: C_34  and  C_35
REMARK   17  A    between atoms: C_35  and  O_36
REMARK   18  A    between atoms: O_36  and  C_37
REMARK   19  A    between atoms: C_37  and  C_38
REMARK   20  A    between atoms: C_38  and  O_39
REMARK                            x       y       z     vdW  Elec       q    Type
REMARK                         _______ _______ _______ _____ _____    ______ ____
ROOT
ATOM      1  C   UNL     1     113.131  75.154  80.314  0.00  0.00    +0.000 C 
ATOM      2  O   UNL     1     112.993  76.184  79.667  0.00  0.00    +0.000 OA
ENDROOT
BRANCH   1   7
ATOM      3  C   UNL     1     111.893  74.888  82.544  0.00  0.00    +0.000 C 
ATOM      4  C   UNL     1     112.181  74.127  83.832  0.00  0.00    +0.000 C 
ATOM      5  C   UNL     1     113.290  73.158  83.457  0.00  0.00    +0.000 C 
ATOM      6  C   UNL     1     113.912  73.668  82.165  0.00  0.00    +0.000 C 
ATOM      7  C   UNL     1     113.309  75.080  81.884  0.00  0.00    +0.000 C 
BRANCH   3   9
ATOM      8  C   UNL     1     110.537  76.254  84.237  0.00  0.00    +0.000 C 
ATOM      9  C   UNL     1     111.085  76.175  82.813  0.00  0.00    +0.000 C 
ENDBRANCH   3   9
BRANCH   7  10
ATOM     10  O   UNL     1     114.021  76.062  82.688  0.00  0.00    +0.000 OA
BRANCH  10  11
ATOM     11  C   UNL     1     115.241  76.590  82.362  0.00  0.00    +0.000 C 
ATOM     12  O   UNL     1     115.436  77.534  81.603  0.00  0.00    +0.000 OA
BRANCH  11  13
ATOM     13  C   UNL     1     116.423  75.950  83.128  0.00  0.00    +0.000 C 
BRANCH  13  14
ATOM     14  O   UNL     1     116.749  76.482  84.407  0.00  0.00    +0.000 OA
BRANCH  14  15
ATOM     15  C   UNL     1     115.701  77.308  84.978  0.00  0.00    +0.000 C 
ATOM     16  C   UNL     1     116.135  78.757  85.246  0.00  0.00    +0.000 C 
ATOM     17  C   UNL     1     117.233  78.874  86.306  0.00  0.00    +0.000 C 
ATOM     18  C   UNL     1     116.921  78.110  87.593  0.00  0.00    +0.000 C 
ATOM     19  C   UNL     1     116.405  76.697  87.344  0.00  0.00    +0.000 C 
ATOM     20  C   UNL     1     115.271  76.676  86.319  0.00  0.00    +0.000 C 
BRANCH  20  21
ATOM     21  O   UNL     1     114.856  75.329  86.106  0.00  0.00    +0.000 OA
ATOM     22  H   UNL     1     114.877  74.907  86.988  0.00  0.00    +0.000 HD
ENDBRANCH  20  21
ENDBRANCH  14  15
ENDBRANCH  13  14
ENDBRANCH  11  13
ENDBRANCH  10  11
ENDBRANCH   7  10
ENDBRANCH   1   7
BRANCH   1  23
ATOM     23  O   UNL     1     113.081  73.902  79.756  0.00  0.00    +0.000 OA
BRANCH  23  24
ATOM     24  C   UNL     1     111.935  73.530  78.938  0.00  0.00    +0.000 C 
ATOM     25  C   UNL     1     111.310  72.244  79.499  0.00  0.00    +0.000 C 
ATOM     26  C   UNL     1     110.443  71.527  78.479  0.00  0.00    +0.000 C 
ATOM     27  O   UNL     1     111.212  71.240  77.316  0.00  0.00    +0.000 OA
ATOM     28  C   UNL     1     111.549  72.441  76.627  0.00  0.00    +0.000 C 
ATOM     29  C   UNL     1     112.449  73.356  77.475  0.00  0.00    +0.000 C 
BRANCH  29  30
ATOM     30  N   UNL     1     112.733  74.624  76.782  0.00  0.00    +0.000 N 
ATOM     31  C   UNL     1     114.009  75.034  76.456  0.00  0.00    +0.000 C 
ATOM     32  O   UNL     1     115.015  74.454  76.842  0.00  0.00    +0.000 OA
ATOM     33  H   UNL     1     111.948  75.081  76.327  0.00  0.00    +0.000 HD
BRANCH  31  34
ATOM     34  C   UNL     1     114.076  76.331  75.593  0.00  0.00    +0.000 C 
BRANCH  34  35
ATOM     35  N   UNL     1     115.256  76.260  74.705  0.00  0.00    +0.000 NA
ATOM     36  H   UNL     1     115.952  76.930  75.040  0.00  0.00    +0.000 HD
ATOM     37  H   UNL     1     114.998  76.570  73.771  0.00  0.00    +0.000 HD
ENDBRANCH  34  35
BRANCH  34  38
ATOM     38  C   UNL     1     112.820  76.491  74.717  0.00  0.00    +0.000 C 
BRANCH  38  39
ATOM     39  C   UNL     1     112.916  77.673  73.764  0.00  0.00    +0.000 C 
BRANCH  39  40
ATOM     40  O   UNL     1     113.551  77.269  72.550  0.00  0.00    +0.000 OA
BRANCH  40  41
ATOM     41  C   UNL     1     112.746  76.352  71.789  0.00  0.00    +0.000 C 
BRANCH  41  42
ATOM     42  C   UNL     1     111.842  77.104  70.830  0.00  0.00    +0.000 C 
BRANCH  42  43
ATOM     43  O   UNL     1     112.693  77.784  69.936  0.00  0.00    +0.000 OA
ATOM     44  H   UNL     1     112.151  78.106  69.187  0.00  0.00    +0.000 HD
ENDBRANCH  42  43
ENDBRANCH  41  42
ENDBRANCH  40  41
ENDBRANCH  39  40
ENDBRANCH  38  39
ENDBRANCH  34  38
ENDBRANCH  31  34
ENDBRANCH  29  30
ENDBRANCH  23  24
ENDBRANCH   1  23
TORSDOF 19
ENDMDL
MODEL 3
REMARK VINA RESULT:      -5.9     27.414     30.799
REMARK  Name = 
REMARK  20 active torsions:
REMARK  status: ('A' for Active; 'I' for Inactive)
REMARK    1  A    between atoms: C_1  and  C_2
REMARK    2  A    between atoms: C_2  and  C_3
REMARK    3  A    between atoms: C_7  and  O_8
REMARK    4  A    between atoms: C_7  and  C_20
REMARK    5  A    between atoms: O_8  and  C_9
REMARK    6  A    between atoms: C_9  and  C_11
REMARK    7  A    between atoms: C_11  and  O_12
REMARK    8  A    between atoms: O_12  and  C_13
REMARK    9  A    between atoms: C_18  and  O_19
REMARK   10  A    between atoms: C_20  and  O_22
REMARK   11  A    between atoms: O_22  and  C_23
REMARK   12  A    between atoms: C_28  and  N_29
REMARK   13  A    between atoms: C_30  and  C_32
REMARK   14  A    between atoms: C_32  and  N_33
REMARK   15  A    between atoms: C_32  and  C_34
REMARK   16  A    between atoms: C_34  and  C_35
REMARK   17  A    between atoms: C_35  and  O_36
REMARK   18  A    between atoms: O_36  and  C_37
REMARK   19  A    between atoms: C_37  and  C_38
REMARK   20  A    between atoms: C_38  and  O_39
REMARK                            x       y       z     vdW  Elec       q    Type
REMARK                         _______ _______ _______ _____ _____    ______ ____
ROOT
ATOM      1  C   UNL     1     113.138  75.283  80.343  0.00  0.00    +0.000 C 
ATOM      2  O   UNL     1     112.935  76.322  79.730  0.00  0.00    +0.000 OA
ENDROOT
BRANCH   1   7
ATOM      3  C   UNL     1     111.904  74.943  82.565  0.00  0.00    +0.000 C 
ATOM      4  C   UNL     1     112.200  74.151  83.832  0.00  0.00    +0.000 C 
ATOM      5  C   UNL     1     113.321  73.205  83.431  0.00  0.00    +0.000 C 
ATOM      6  C   UNL     1     113.937  73.757  82.153  0.00  0.00    +0.000 C 
ATOM      7  C   UNL     1     113.318  75.169  81.911  0.00  0.00    +0.000 C 
BRANCH   3   9
ATOM      8  C   UNL     1     110.569  76.267  84.307  0.00  0.00    +0.000 C 
ATOM      9  C   UNL     1     111.082  76.213  82.868  0.00  0.00    +0.000 C 
ENDBRANCH   3   9
BRANCH   7  10
ATOM     10  O   UNL     1     114.018  76.137  82.741  0.00  0.00    +0.000 OA
BRANCH  10  11
ATOM     11  C   UNL     1     115.200  76.736  82.399  0.00  0.00    +0.000 C 
ATOM     12  O   UNL     1     115.343  77.619  81.559  0.00  0.00    +0.000 OA
BRANCH  11  13
ATOM     13  C   UNL     1     116.404  76.275  83.254  0.00  0.00    +0.000 C 
BRANCH  13  14
ATOM     14  O   UNL     1     117.111  77.266  83.991  0.00  0.00    +0.000 OA
BRANCH  14  15
ATOM     15  C   UNL     1     117.649  76.781  85.249  0.00  0.00    +0.000 C 
ATOM     16  C   UNL     1     116.578  76.250  86.215  0.00  0.00    +0.000 C 
ATOM     17  C   UNL     1     115.604  77.331  86.691  0.00  0.00    +0.000 C 
ATOM     18  C   UNL     1     116.298  78.586  87.220  0.00  0.00    +0.000 C 
ATOM     19  C   UNL     1     117.423  79.078  86.318  0.00  0.00    +0.000 C 
ATOM     20  C   UNL     1     118.384  77.950  85.938  0.00  0.00    +0.000 C 
BRANCH  20  21
ATOM     21  O   UNL     1     119.391  78.464  85.070  0.00  0.00    +0.000 OA
ATOM     22  H   UNL     1     119.236  79.430  85.033  0.00  0.00    +0.000 HD
ENDBRANCH  20  21
ENDBRANCH  14  15
ENDBRANCH  13  14
ENDBRANCH  11  13
ENDBRANCH  10  11
ENDBRANCH   7  10
ENDBRANCH   1   7
BRANCH   1  23
ATOM     23  O   UNL     1     113.170  74.050  79.744  0.00  0.00    +0.000 OA
BRANCH  23  24
ATOM     24  C   UNL     1     111.992  73.568  79.037  0.00  0.00    +0.000 C 
ATOM     25  C   UNL     1     111.454  72.316  79.746  0.00  0.00    +0.000 C 
ATOM     26  C   UNL     1     110.555  71.483  78.850  0.00  0.00    +0.000 C 
ATOM     27  O   UNL     1     111.262  71.120  77.668  0.00  0.00    +0.000 OA
ATOM     28  C   UNL     1     111.508  72.267  76.858  0.00  0.00    +0.000 C 
ATOM     29  C   UNL     1     112.421  73.283  77.564  0.00  0.00    +0.000 C 
BRANCH  29  30
ATOM     30  N   UNL     1     112.612  74.494  76.748  0.00  0.00    +0.000 N 
ATOM     31  C   UNL     1     113.854  75.027  76.472  0.00  0.00    +0.000 C 
ATOM     32  O   UNL     1     114.883  74.629  76.998  0.00  0.00    +0.000 OA
ATOM     33  H   UNL     1     111.822  74.793  76.185  0.00  0.00    +0.000 HD
BRANCH  31  34
ATOM     34  C   UNL     1     113.841  76.220  75.467  0.00  0.00    +0.000 C 
BRANCH  34  35
ATOM     35  N   UNL     1     115.230  76.536  75.074  0.00  0.00    +0.000 NA
ATOM     36  H   UNL     1     115.471  77.455  75.452  0.00  0.00    +0.000 HD
ATOM     37  H   UNL     1     115.285  76.628  74.062  0.00  0.00    +0.000 HD
ENDBRANCH  34  35
BRANCH  34  38
ATOM     38  C   UNL     1     113.043  75.878  74.196  0.00  0.00    +0.000 C 
BRANCH  38  39
ATOM     39  C   UNL     1     112.099  76.996  73.777  0.00  0.00    +0.000 C 
BRANCH  39  40
ATOM     40  O   UNL     1     112.796  78.242  73.761  0.00  0.00    +0.000 OA
BRANCH  40  41
ATOM     41  C   UNL     1     112.919  78.784  72.436  0.00  0.00    +0.000 C 
BRANCH  41  42
ATOM     42  C   UNL     1     113.403  80.222  72.490  0.00  0.00    +0.000 C 
BRANCH  42  43
ATOM     43  O   UNL     1     112.769  80.893  71.426  0.00  0.00    +0.000 OA
ATOM     44  H   UNL     1     113.453  81.141  70.772  0.00  0.00    +0.000 HD
ENDBRANCH  42  43
ENDBRANCH  41  42
ENDBRANCH  40  41
ENDBRANCH  39  40
ENDBRANCH  38  39
ENDBRANCH  34  38
ENDBRANCH  31  34
ENDBRANCH  29  30
ENDBRANCH  23  24
ENDBRANCH   1  23
TORSDOF 19
ENDMDL
MODEL 4
REMARK VINA RESULT:      -5.8     27.953     30.983
REMARK  Name = 
REMARK  20 active torsions:
REMARK  status: ('A' for Active; 'I' for Inactive)
REMARK    1  A    between atoms: C_1  and  C_2
REMARK    2  A    between atoms: C_2  and  C_3
REMARK    3  A    between atoms: C_7  and  O_8
REMARK    4  A    between atoms: C_7  and  C_20
REMARK    5  A    between atoms: O_8  and  C_9
REMARK    6  A    between atoms: C_9  and  C_11
REMARK    7  A    between atoms: C_11  and  O_12
REMARK    8  A    between atoms: O_12  and  C_13
REMARK    9  A    between atoms: C_18  and  O_19
REMARK   10  A    between atoms: C_20  and  O_22
REMARK   11  A    between atoms: O_22  and  C_23
REMARK   12  A    between atoms: C_28  and  N_29
REMARK   13  A    between atoms: C_30  and  C_32
REMARK   14  A    between atoms: C_32  and  N_33
REMARK   15  A    between atoms: C_32  and  C_34
REMARK   16  A    between atoms: C_34  and  C_35
REMARK   17  A    between atoms: C_35  and  O_36
REMARK   18  A    between atoms: O_36  and  C_37
REMARK   19  A    between atoms: C_37  and  C_38
REMARK   20  A    between atoms: C_38  and  O_39
REMARK                            x       y       z     vdW  Elec       q    Type
REMARK                         _______ _______ _______ _____ _____    ______ ____
ROOT
ATOM      1  C   UNL     1     113.280  75.282  80.486  0.00  0.00    +0.000 C 
ATOM      2  O   UNL     1     113.252  76.403  79.994  0.00  0.00    +0.000 OA
ENDROOT
BRANCH   1   7
ATOM      3  C   UNL     1     111.929  74.909  82.633  0.00  0.00    +0.000 C 
ATOM      4  C   UNL     1     112.047  73.944  83.806  0.00  0.00    +0.000 C 
ATOM      5  C   UNL     1     113.013  72.876  83.319  0.00  0.00    +0.000 C 
ATOM      6  C   UNL     1     113.755  73.456  82.123  0.00  0.00    +0.000 C 
ATOM      7  C   UNL     1     113.383  74.969  82.033  0.00  0.00    +0.000 C 
BRANCH   3   9
ATOM      8  C   UNL     1     110.489  76.156  84.349  0.00  0.00    +0.000 C 
ATOM      9  C   UNL     1     111.314  76.256  83.066  0.00  0.00    +0.000 C 
ENDBRANCH   3   9
BRANCH   7  10
ATOM     10  O   UNL     1     114.202  75.710  82.980  0.00  0.00    +0.000 OA
BRANCH  10  11
ATOM     11  C   UNL     1     115.187  76.591  82.626  0.00  0.00    +0.000 C 
ATOM     12  O   UNL     1     115.049  77.800  82.470  0.00  0.00    +0.000 OA
BRANCH  11  13
ATOM     13  C   UNL     1     116.591  75.949  82.521  0.00  0.00    +0.000 C 
BRANCH  13  14
ATOM     14  O   UNL     1     117.402  76.310  81.409  0.00  0.00    +0.000 OA
BRANCH  14  15
ATOM     15  C   UNL     1     116.921  75.787  80.144  0.00  0.00    +0.000 C 
ATOM     16  C   UNL     1     117.851  74.738  79.516  0.00  0.00    +0.000 C 
ATOM     17  C   UNL     1     119.217  75.302  79.118  0.00  0.00    +0.000 C 
ATOM     18  C   UNL     1     119.129  76.579  78.283  0.00  0.00    +0.000 C 
ATOM     19  C   UNL     1     118.144  77.598  78.844  0.00  0.00    +0.000 C 
ATOM     20  C   UNL     1     116.787  76.967  79.158  0.00  0.00    +0.000 C 
BRANCH  20  21
ATOM     21  O   UNL     1     115.924  77.959  79.708  0.00  0.00    +0.000 OA
ATOM     22  H   UNL     1     116.389  78.301  80.498  0.00  0.00    +0.000 HD
ENDBRANCH  20  21
ENDBRANCH  14  15
ENDBRANCH  13  14
ENDBRANCH  11  13
ENDBRANCH  10  11
ENDBRANCH   7  10
ENDBRANCH   1   7
BRANCH   1  23
ATOM     23  O   UNL     1     113.156  74.133  79.748  0.00  0.00    +0.000 OA
BRANCH  23  24
ATOM     24  C   UNL     1     111.939  73.902  78.983  0.00  0.00    +0.000 C 
ATOM     25  C   UNL     1     111.072  72.866  79.714  0.00  0.00    +0.000 C 
ATOM     26  C   UNL     1     110.050  72.215  78.798  0.00  0.00    +0.000 C 
ATOM     27  O   UNL     1     110.715  71.616  77.690  0.00  0.00    +0.000 OA
ATOM     28  C   UNL     1     111.279  72.614  76.843  0.00  0.00    +0.000 C 
ATOM     29  C   UNL     1     112.371  73.425  77.562  0.00  0.00    +0.000 C 
BRANCH  29  30
ATOM     30  N   UNL     1     112.897  74.498  76.701  0.00  0.00    +0.000 N 
ATOM     31  C   UNL     1     113.966  74.321  75.847  0.00  0.00    +0.000 C 
ATOM     32  O   UNL     1     114.654  73.309  75.839  0.00  0.00    +0.000 OA
ATOM     33  H   UNL     1     112.301  75.309  76.567  0.00  0.00    +0.000 HD
BRANCH  31  34
ATOM     34  C   UNL     1     114.265  75.537  74.917  0.00  0.00    +0.000 C 
BRANCH  34  35
ATOM     35  N   UNL     1     113.852  75.204  73.538  0.00  0.00    +0.000 NA
ATOM     36  H   UNL     1     114.340  75.831  72.895  0.00  0.00    +0.000 HD
ATOM     37  H   UNL     1     112.860  75.404  73.423  0.00  0.00    +0.000 HD
ENDBRANCH  34  35
BRANCH  34  38
ATOM     38  C   UNL     1     113.494  76.792  75.365  0.00  0.00    +0.000 C 
BRANCH  38  39
ATOM     39  C   UNL     1     114.180  78.083  74.945  0.00  0.00    +0.000 C 
BRANCH  39  40
ATOM     40  O   UNL     1     114.394  78.083  73.532  0.00  0.00    +0.000 OA
BRANCH  40  41
ATOM     41  C   UNL     1     114.158  79.373  72.942  0.00  0.00    +0.000 C 
BRANCH  41  42
ATOM     42  C   UNL     1     113.046  79.294  71.913  0.00  0.00    +0.000 C 
BRANCH  42  43
ATOM     43  O   UNL     1     112.140  80.324  72.230  0.00  0.00    +0.000 OA
ATOM     44  H   UNL     1     111.863  80.210  73.162  0.00  0.00    +0.000 HD
ENDBRANCH  42  43
ENDBRANCH  41  42
ENDBRANCH  40  41
ENDBRANCH  39  40
ENDBRANCH  38  39
ENDBRANCH  34  38
ENDBRANCH  31  34
ENDBRANCH  29  30
ENDBRANCH  23  24
ENDBRANCH   1  23
TORSDOF 19
ENDMDL
MODEL 5
REMARK VINA RESULT:      -5.8     22.820     30.344
REMARK  Name = 
REMARK  20 active torsions:
REMARK  status: ('A' for Active; 'I' for Inactive)
REMARK    1  A    between atoms: C_1  and  C_2
REMARK    2  A    between atoms: C_2  and  C_3
REMARK    3  A    between atoms: C_7  and  O_8
REMARK    4  A    between atoms: C_7  and  C_20
REMARK    5  A    between atoms: O_8  and  C_9
REMARK    6  A    between atoms: C_9  and  C_11
REMARK    7  A    between atoms: C_11  and  O_12
REMARK    8  A    between atoms: O_12  and  C_13
REMARK    9  A    between atoms: C_18  and  O_19
REMARK   10  A    between atoms: C_20  and  O_22
REMARK   11  A    between atoms: O_22  and  C_23
REMARK   12  A    between atoms: C_28  and  N_29
REMARK   13  A    between atoms: C_30  and  C_32
REMARK   14  A    between atoms: C_32  and  N_33
REMARK   15  A    between atoms: C_32  and  C_34
REMARK   16  A    between atoms: C_34  and  C_35
REMARK   17  A    between atoms: C_35  and  O_36
REMARK   18  A    between atoms: O_36  and  C_37
REMARK   19  A    between atoms: C_37  and  C_38
REMARK   20  A    between atoms: C_38  and  O_39
REMARK                            x       y       z     vdW  Elec       q    Type
REMARK                         _______ _______ _______ _____ _____    ______ ____
ROOT
ATOM      1  C   UNL     1     113.770  76.640  75.429  0.00  0.00    +0.000 C 
ATOM      2  O   UNL     1     113.838  77.820  75.748  0.00  0.00    +0.000 OA
ENDROOT
BRANCH   1   7
ATOM      3  C   UNL     1     113.106  74.180  75.715  0.00  0.00    +0.000 C 
ATOM      4  C   UNL     1     113.755  72.978  76.388  0.00  0.00    +0.000 C 
ATOM      5  C   UNL     1     115.192  73.411  76.627  0.00  0.00    +0.000 C 
ATOM      6  C   UNL     1     115.225  74.929  76.523  0.00  0.00    +0.000 C 
ATOM      7  C   UNL     1     113.747  75.422  76.438  0.00  0.00    +0.000 C 
BRANCH   3   9
ATOM      8  C   UNL     1     111.054  72.883  76.539  0.00  0.00    +0.000 C 
ATOM      9  C   UNL     1     111.566  74.089  75.751  0.00  0.00    +0.000 C 
ENDBRANCH   3   9
BRANCH   7  10
ATOM     10  O   UNL     1     113.189  75.464  77.781  0.00  0.00    +0.000 OA
BRANCH  10  11
ATOM     11  C   UNL     1     113.795  76.063  78.851  0.00  0.00    +0.000 C 
ATOM     12  O   UNL     1     114.050  77.258  78.958  0.00  0.00    +0.000 OA
BRANCH  11  13
ATOM     13  C   UNL     1     114.071  75.101  80.031  0.00  0.00    +0.000 C 
BRANCH  13  14
ATOM     14  O   UNL     1     113.436  73.828  80.010  0.00  0.00    +0.000 OA
BRANCH  14  15
ATOM     15  C   UNL     1     112.055  73.858  80.456  0.00  0.00    +0.000 C 
ATOM     16  C   UNL     1     111.820  74.764  81.675  0.00  0.00    +0.000 C 
ATOM     17  C   UNL     1     112.541  74.279  82.935  0.00  0.00    +0.000 C 
ATOM     18  C   UNL     1     112.297  72.803  83.248  0.00  0.00    +0.000 C 
ATOM     19  C   UNL     1     112.440  71.898  82.029  0.00  0.00    +0.000 C 
ATOM     20  C   UNL     1     111.642  72.420  80.834  0.00  0.00    +0.000 C 
BRANCH  20  21
ATOM     21  O   UNL     1     111.841  71.553  79.721  0.00  0.00    +0.000 OA
ATOM     22  H   UNL     1     112.800  71.591  79.530  0.00  0.00    +0.000 HD
ENDBRANCH  20  21
ENDBRANCH  14  15
ENDBRANCH  13  14
ENDBRANCH  11  13
ENDBRANCH  10  11
ENDBRANCH   7  10
ENDBRANCH   1   7
BRANCH   1  23
ATOM     23  O   UNL     1     113.634  76.219  74.131  0.00  0.00    +0.000 OA
BRANCH  23  24
ATOM     24  C   UNL     1     112.544  76.742  73.320  0.00  0.00    +0.000 C 
ATOM     25  C   UNL     1     111.974  75.613  72.449  0.00  0.00    +0.000 C 
ATOM     26  C   UNL     1     111.190  76.136  71.259  0.00  0.00    +0.000 C 
ATOM     27  O   UNL     1     112.019  76.995  70.481  0.00  0.00    +0.000 OA
ATOM     28  C   UNL     1     112.310  78.193  71.195  0.00  0.00    +0.000 C 
ATOM     29  C   UNL     1     113.123  77.917  72.471  0.00  0.00    +0.000 C 
BRANCH  29  30
ATOM     30  N   UNL     1     113.358  79.153  73.237  0.00  0.00    +0.000 N 
ATOM     31  C   UNL     1     114.445  79.976  73.021  0.00  0.00    +0.000 C 
ATOM     32  O   UNL     1     115.374  79.675  72.285  0.00  0.00    +0.000 OA
ATOM     33  H   UNL     1     112.572  79.520  73.764  0.00  0.00    +0.000 HD
BRANCH  31  34
ATOM     34  C   UNL     1     114.424  81.308  73.833  0.00  0.00    +0.000 C 
BRANCH  34  35
ATOM     35  N   UNL     1     114.561  80.998  75.272  0.00  0.00    +0.000 NA
ATOM     36  H   UNL     1     113.982  81.656  75.799  0.00  0.00    +0.000 HD
ATOM     37  H   UNL     1     115.519  81.172  75.567  0.00  0.00    +0.000 HD
ENDBRANCH  34  35
BRANCH  34  38
ATOM     38  C   UNL     1     115.581  82.236  73.424  0.00  0.00    +0.000 C 
BRANCH  38  39
ATOM     39  C   UNL     1     115.150  83.315  72.442  0.00  0.00    +0.000 C 
BRANCH  39  40
ATOM     40  O   UNL     1     114.751  84.488  73.152  0.00  0.00    +0.000 OA
BRANCH  40  41
ATOM     41  C   UNL     1     113.675  85.184  72.501  0.00  0.00    +0.000 C 
BRANCH  41  42
ATOM     42  C   UNL     1     113.388  86.499  73.201  0.00  0.00    +0.000 C 
BRANCH  42  43
ATOM     43  O   UNL     1     114.492  86.752  74.038  0.00  0.00    +0.000 OA
ATOM     44  H   UNL     1     114.930  87.570  73.726  0.00  0.00    +0.000 HD
ENDBRANCH  42  43
ENDBRANCH  41  42
ENDBRANCH  40  41
ENDBRANCH  39  40
ENDBRANCH  38  39
ENDBRANCH  34  38
ENDBRANCH  31  34
ENDBRANCH  29  30
ENDBRANCH  23  24
ENDBRANCH   1  23
TORSDOF 19
ENDMDL
MODEL 6
REMARK VINA RESULT:      -5.8     27.519     31.028
REMARK  Name = 
REMARK  20 active torsions:
REMARK  status: ('A' for Active; 'I' for Inactive)
REMARK    1  A    between atoms: C_1  and  C_2
REMARK    2  A    between atoms: C_2  and  C_3
REMARK    3  A    between atoms: C_7  and  O_8
REMARK    4  A    between atoms: C_7  and  C_20
REMARK    5  A    between atoms: O_8  and  C_9
REMARK    6  A    between atoms: C_9  and  C_11
REMARK    7  A    between atoms: C_11  and  O_12
REMARK    8  A    between atoms: O_12  and  C_13
REMARK    9  A    between atoms: C_18  and  O_19
REMARK   10  A    between atoms: C_20  and  O_22
REMARK   11  A    between atoms: O_22  and  C_23
REMARK   12  A    between atoms: C_28  and  N_29
REMARK   13  A    between atoms: C_30  and  C_32
REMARK   14  A    between atoms: C_32  and  N_33
REMARK   15  A    between atoms: C_32  and  C_34
REMARK   16  A    between atoms: C_34  and  C_35
REMARK   17  A    between atoms: C_35  and  O_36
REMARK   18  A    between atoms: O_36  and  C_37
REMARK   19  A    between atoms: C_37  and  C_38
REMARK   20  A    between atoms: C_38  and  O_39
REMARK                            x       y       z     vdW  Elec       q    Type
REMARK                         _______ _______ _______ _____ _____    ______ ____
ROOT
ATOM      1  C   UNL     1     113.893  76.548  76.155  0.00  0.00    +0.000 C 
ATOM      2  O   UNL     1     113.992  77.742  76.406  0.00  0.00    +0.000 OA
ENDROOT
BRANCH   1   7
ATOM      3  C   UNL     1     113.360  74.064  76.505  0.00  0.00    +0.000 C 
ATOM      4  C   UNL     1     113.963  72.961  77.366  0.00  0.00    +0.000 C 
ATOM      5  C   UNL     1     115.303  73.522  77.812  0.00  0.00    +0.000 C 
ATOM      6  C   UNL     1     115.249  75.029  77.603  0.00  0.00    +0.000 C 
ATOM      7  C   UNL     1     113.778  75.395  77.233  0.00  0.00    +0.000 C 
BRANCH   3   9
ATOM      8  C   UNL     1     111.277  72.701  77.115  0.00  0.00    +0.000 C 
ATOM      9  C   UNL     1     111.848  73.852  76.287  0.00  0.00    +0.000 C 
ENDBRANCH   3   9
BRANCH   7  10
ATOM     10  O   UNL     1     112.994  75.474  78.455  0.00  0.00    +0.000 OA
BRANCH  10  11
ATOM     11  C   UNL     1     113.363  76.181  79.567  0.00  0.00    +0.000 C 
ATOM     12  O   UNL     1     113.759  77.342  79.583  0.00  0.00    +0.000 OA
BRANCH  11  13
ATOM     13  C   UNL     1     113.149  75.414  80.893  0.00  0.00    +0.000 C 
BRANCH  13  14
ATOM     14  O   UNL     1     113.055  73.995  80.831  0.00  0.00    +0.000 OA
BRANCH  14  15
ATOM     15  C   UNL     1     112.428  73.402  81.998  0.00  0.00    +0.000 C 
ATOM     16  C   UNL     1     113.186  73.668  83.308  0.00  0.00    +0.000 C 
ATOM     17  C   UNL     1     114.576  73.027  83.342  0.00  0.00    +0.000 C 
ATOM     18  C   UNL     1     114.574  71.547  82.959  0.00  0.00    +0.000 C 
ATOM     19  C   UNL     1     113.753  71.251  81.709  0.00  0.00    +0.000 C 
ATOM     20  C   UNL     1     112.359  71.875  81.780  0.00  0.00    +0.000 C 
BRANCH  20  21
ATOM     21  O   UNL     1     111.656  71.592  80.574  0.00  0.00    +0.000 OA
ATOM     22  H   UNL     1     112.342  71.336  79.925  0.00  0.00    +0.000 HD
ENDBRANCH  20  21
ENDBRANCH  14  15
ENDBRANCH  13  14
ENDBRANCH  11  13
ENDBRANCH  10  11
ENDBRANCH   7  10
ENDBRANCH   1   7
BRANCH   1  23
ATOM     23  O   UNL     1     113.799  76.053  74.880  0.00  0.00    +0.000 OA
BRANCH  23  24
ATOM     24  C   UNL     1     112.826  76.626  73.960  0.00  0.00    +0.000 C 
ATOM     25  C   UNL     1     112.199  75.503  73.122  0.00  0.00    +0.000 C 
ATOM     26  C   UNL     1     111.555  76.019  71.847  0.00  0.00    +0.000 C 
ATOM     27  O   UNL     1     112.519  76.734  71.081  0.00  0.00    +0.000 OA
ATOM     28  C   UNL     1     112.888  77.944  71.739  0.00  0.00    +0.000 C 
ATOM     29  C   UNL     1     113.580  77.676  73.086  0.00  0.00    +0.000 C 
BRANCH  29  30
ATOM     30  N   UNL     1     113.893  78.931  73.789  0.00  0.00    +0.000 N 
ATOM     31  C   UNL     1     115.157  79.482  73.818  0.00  0.00    +0.000 C 
ATOM     32  O   UNL     1     116.147  78.904  73.391  0.00  0.00    +0.000 OA
ATOM     33  H   UNL     1     113.105  79.517  74.049  0.00  0.00    +0.000 HD
BRANCH  31  34
ATOM     34  C   UNL     1     115.240  80.888  74.487  0.00  0.00    +0.000 C 
BRANCH  34  35
ATOM     35  N   UNL     1     114.452  80.875  75.737  0.00  0.00    +0.000 NA
ATOM     36  H   UNL     1     113.462  80.961  75.495  0.00  0.00    +0.000 HD
ATOM     37  H   UNL     1     114.676  81.700  76.289  0.00  0.00    +0.000 HD
ENDBRANCH  34  35
BRANCH  34  38
ATOM     38  C   UNL     1     116.692  81.264  74.833  0.00  0.00    +0.000 C 
BRANCH  38  39
ATOM     39  C   UNL     1     117.040  80.983  76.288  0.00  0.00    +0.000 C 
BRANCH  39  40
ATOM     40  O   UNL     1     117.931  79.870  76.369  0.00  0.00    +0.000 OA
BRANCH  40  41
ATOM     41  C   UNL     1     117.314  78.717  76.965  0.00  0.00    +0.000 C 
BRANCH  41  42
ATOM     42  C   UNL     1     117.818  78.514  78.382  0.00  0.00    +0.000 C 
BRANCH  42  43
ATOM     43  O   UNL     1     116.676  78.334  79.186  0.00  0.00    +0.000 OA
ATOM     44  H   UNL     1     116.632  77.391  79.446  0.00  0.00    +0.000 HD
ENDBRANCH  42  43
ENDBRANCH  41  42
ENDBRANCH  40  41
ENDBRANCH  39  40
ENDBRANCH  38  39
ENDBRANCH  34  38
ENDBRANCH  31  34
ENDBRANCH  29  30
ENDBRANCH  23  24
ENDBRANCH   1  23
TORSDOF 19
ENDMDL
MODEL 7
REMARK VINA RESULT:      -5.7     29.056     32.320
REMARK  Name = 
REMARK  20 active torsions:
REMARK  status: ('A' for Active; 'I' for Inactive)
REMARK    1  A    between atoms: C_1  and  C_2
REMARK    2  A    between atoms: C_2  and  C_3
REMARK    3  A    between atoms: C_7  and  O_8
REMARK    4  A    between atoms: C_7  and  C_20
REMARK    5  A    between atoms: O_8  and  C_9
REMARK    6  A    between atoms: C_9  and  C_11
REMARK    7  A    between atoms: C_11  and  O_12
REMARK    8  A    between atoms: O_12  and  C_13
REMARK    9  A    between atoms: C_18  and  O_19
REMARK   10  A    between atoms: C_20  and  O_22
REMARK   11  A    between atoms: O_22  and  C_23
REMARK   12  A    between atoms: C_28  and  N_29
REMARK   13  A    between atoms: C_30  and  C_32
REMARK   14  A    between atoms: C_32  and  N_33
REMARK   15  A    between atoms: C_32  and  C_34
REMARK   16  A    between atoms: C_34  and  C_35
REMARK   17  A    between atoms: C_35  and  O_36
REMARK   18  A    between atoms: O_36  and  C_37
REMARK   19  A    between atoms: C_37  and  C_38
REMARK   20  A    between atoms: C_38  and  O_39
REMARK                            x       y       z     vdW  Elec       q    Type
REMARK                         _______ _______ _______ _____ _____    ______ ____
ROOT
ATOM      1  C   UNL     1     114.437  73.844  83.120  0.00  0.00    +0.000 C 
ATOM      2  O   UNL     1     114.494  72.917  82.323  0.00  0.00    +0.000 OA
ENDROOT
BRANCH   1   7
ATOM      3  C   UNL     1     113.022  75.684  84.210  0.00  0.00    +0.000 C 
ATOM      4  C   UNL     1     113.002  77.204  84.114  0.00  0.00    +0.000 C 
ATOM      5  C   UNL     1     114.318  77.555  83.439  0.00  0.00    +0.000 C 
ATOM      6  C   UNL     1     114.832  76.287  82.772  0.00  0.00    +0.000 C 
ATOM      7  C   UNL     1     113.697  75.220  82.867  0.00  0.00    +0.000 C 
BRANCH   3   9
ATOM      8  C   UNL     1     110.512  76.167  84.408  0.00  0.00    +0.000 C 
ATOM      9  C   UNL     1     111.617  75.115  84.501  0.00  0.00    +0.000 C 
ENDBRANCH   3   9
BRANCH   7  10
ATOM     10  O   UNL     1     112.735  75.463  81.803  0.00  0.00    +0.000 OA
BRANCH  10  11
ATOM     11  C   UNL     1     113.056  75.954  80.567  0.00  0.00    +0.000 C 
ATOM     12  O   UNL     1     112.981  77.127  80.216  0.00  0.00    +0.000 OA
BRANCH  11  13
ATOM     13  C   UNL     1     113.646  74.892  79.608  0.00  0.00    +0.000 C 
BRANCH  13  14
ATOM     14  O   UNL     1     112.746  73.964  79.014  0.00  0.00    +0.000 OA
BRANCH  14  15
ATOM     15  C   UNL     1     113.060  72.578  79.310  0.00  0.00    +0.000 C 
ATOM     16  C   UNL     1     113.282  71.714  78.059  0.00  0.00    +0.000 C 
ATOM     17  C   UNL     1     112.027  71.569  77.195  0.00  0.00    +0.000 C 
ATOM     18  C   UNL     1     110.789  71.146  77.984  0.00  0.00    +0.000 C 
ATOM     19  C   UNL     1     110.601  71.934  79.276  0.00  0.00    +0.000 C 
ATOM     20  C   UNL     1     111.882  71.980  80.108  0.00  0.00    +0.000 C 
BRANCH  20  21
ATOM     21  O   UNL     1     111.652  72.756  81.282  0.00  0.00    +0.000 OA
ATOM     22  H   UNL     1     111.717  72.126  82.028  0.00  0.00    +0.000 HD
ENDBRANCH  20  21
ENDBRANCH  14  15
ENDBRANCH  13  14
ENDBRANCH  11  13
ENDBRANCH  10  11
ENDBRANCH   7  10
ENDBRANCH   1   7
BRANCH   1  23
ATOM     23  O   UNL     1     114.959  73.782  84.386  0.00  0.00    +0.000 OA
BRANCH  23  24
ATOM     24  C   UNL     1     116.405  73.774  84.564  0.00  0.00    +0.000 C 
ATOM     25  C   UNL     1     116.909  72.324  84.532  0.00  0.00    +0.000 C 
ATOM     26  C   UNL     1     118.279  72.172  85.169  0.00  0.00    +0.000 C 
ATOM     27  O   UNL     1     118.240  72.656  86.507  0.00  0.00    +0.000 OA
ATOM     28  C   UNL     1     118.060  74.070  86.525  0.00  0.00    +0.000 C 
ATOM     29  C   UNL     1     116.708  74.482  85.920  0.00  0.00    +0.000 C 
BRANCH  29  30
ATOM     30  N   UNL     1     116.561  75.947  85.879  0.00  0.00    +0.000 N 
ATOM     31  C   UNL     1     115.669  76.637  86.675  0.00  0.00    +0.000 C 
ATOM     32  O   UNL     1     114.828  76.083  87.369  0.00  0.00    +0.000 OA
ATOM     33  H   UNL     1     117.307  76.468  85.427  0.00  0.00    +0.000 HD
BRANCH  31  34
ATOM     34  C   UNL     1     115.782  78.190  86.583  0.00  0.00    +0.000 C 
BRANCH  34  35
ATOM     35  N   UNL     1     115.820  78.752  87.949  0.00  0.00    +0.000 NA
ATOM     36  H   UNL     1     115.950  77.983  88.611  0.00  0.00    +0.000 HD
ATOM     37  H   UNL     1     114.916  79.163  88.174  0.00  0.00    +0.000 HD
ENDBRANCH  34  35
BRANCH  34  38
ATOM     38  C   UNL     1     117.062  78.620  85.846  0.00  0.00    +0.000 C 
BRANCH  38  39
ATOM     39  C   UNL     1     118.060  79.316  86.760  0.00  0.00    +0.000 C 
BRANCH  39  40
ATOM     40  O   UNL     1     119.265  78.553  86.836  0.00  0.00    +0.000 OA
BRANCH  40  41
ATOM     41  C   UNL     1     119.188  77.503  87.815  0.00  0.00    +0.000 C 
BRANCH  41  42
ATOM     42  C   UNL     1     120.216  77.718  88.911  0.00  0.00    +0.000 C 
BRANCH  42  43
ATOM     43  O   UNL     1     119.846  76.869  89.972  0.00  0.00    +0.000 OA
ATOM     44  H   UNL     1     119.927  77.373  90.807  0.00  0.00    +0.000 HD
ENDBRANCH  42  43
ENDBRANCH  41  42
ENDBRANCH  40  41
ENDBRANCH  39  40
ENDBRANCH  38  39
ENDBRANCH  34  38
ENDBRANCH  31  34
ENDBRANCH  29  30
ENDBRANCH  23  24
ENDBRANCH   1  23
TORSDOF 19
ENDMDL
MODEL 8
REMARK VINA RESULT:      -5.7     28.687     30.759
REMARK  Name = 
REMARK  20 active torsions:
REMARK  status: ('A' for Active; 'I' for Inactive)
REMARK    1  A    between atoms: C_1  and  C_2
REMARK    2  A    between atoms: C_2  and  C_3
REMARK    3  A    between atoms: C_7  and  O_8
REMARK    4  A    between atoms: C_7  and  C_20
REMARK    5  A    between atoms: O_8  and  C_9
REMARK    6  A    between atoms: C_9  and  C_11
REMARK    7  A    between atoms: C_11  and  O_12
REMARK    8  A    between atoms: O_12  and  C_13
REMARK    9  A    between atoms: C_18  and  O_19
REMARK   10  A    between atoms: C_20  and  O_22
REMARK   11  A    between atoms: O_22  and  C_23
REMARK   12  A    between atoms: C_28  and  N_29
REMARK   13  A    between atoms: C_30  and  C_32
REMARK   14  A    between atoms: C_32  and  N_33
REMARK   15  A    between atoms: C_32  and  C_34
REMARK   16  A    between atoms: C_34  and  C_35
REMARK   17  A    between atoms: C_35  and  O_36
REMARK   18  A    between atoms: O_36  and  C_37
REMARK   19  A    between atoms: C_37  and  C_38
REMARK   20  A    between atoms: C_38  and  O_39
REMARK                            x       y       z     vdW  Elec       q    Type
REMARK                         _______ _______ _______ _____ _____    ______ ____
ROOT
ATOM      1  C   UNL     1     113.345  76.182  80.957  0.00  0.00    +0.000 C 
ATOM      2  O   UNL     1     113.093  77.201  80.328  0.00  0.00    +0.000 OA
ENDROOT
BRANCH   1   7
ATOM      3  C   UNL     1     111.989  75.277  82.937  0.00  0.00    +0.000 C 
ATOM      4  C   UNL     1     112.354  74.576  84.240  0.00  0.00    +0.000 C 
ATOM      5  C   UNL     1     113.795  74.137  84.040  0.00  0.00    +0.000 C 
ATOM      6  C   UNL     1     114.355  74.953  82.884  0.00  0.00    +0.000 C 
ATOM      7  C   UNL     1     113.300  76.048  82.533  0.00  0.00    +0.000 C 
BRANCH   3   9
ATOM      8  C   UNL     1     110.194  76.185  84.526  0.00  0.00    +0.000 C 
ATOM      9  C   UNL     1     110.714  76.133  83.090  0.00  0.00    +0.000 C 
ENDBRANCH   3   9
BRANCH   7  10
ATOM     10  O   UNL     1     113.446  77.155  83.466  0.00  0.00    +0.000 OA
BRANCH  10  11
ATOM     11  C   UNL     1     114.646  77.667  83.878  0.00  0.00    +0.000 C 
ATOM     12  O   UNL     1     115.549  78.059  83.147  0.00  0.00    +0.000 OA
BRANCH  11  13
ATOM     13  C   UNL     1     114.767  77.819  85.413  0.00  0.00    +0.000 C 
BRANCH  13  14
ATOM     14  O   UNL     1     115.772  77.060  86.076  0.00  0.00    +0.000 OA
BRANCH  14  15
ATOM     15  C   UNL     1     116.681  77.867  86.869  0.00  0.00    +0.000 C 
ATOM     16  C   UNL     1     117.995  78.206  86.147  0.00  0.00    +0.000 C 
ATOM     17  C   UNL     1     118.854  76.976  85.847  0.00  0.00    +0.000 C 
ATOM     18  C   UNL     1     119.071  76.073  87.061  0.00  0.00    +0.000 C 
ATOM     19  C   UNL     1     117.791  75.797  87.842  0.00  0.00    +0.000 C 
ATOM     20  C   UNL     1     117.023  77.082  88.153  0.00  0.00    +0.000 C 
BRANCH  20  21
ATOM     21  O   UNL     1     115.825  76.755  88.852  0.00  0.00    +0.000 OA
ATOM     22  H   UNL     1     116.046  75.974  89.398  0.00  0.00    +0.000 HD
ENDBRANCH  20  21
ENDBRANCH  14  15
ENDBRANCH  13  14
ENDBRANCH  11  13
ENDBRANCH  10  11
ENDBRANCH   7  10
ENDBRANCH   1   7
BRANCH   1  23
ATOM     23  O   UNL     1     113.638  74.983  80.360  0.00  0.00    +0.000 OA
BRANCH  23  24
ATOM     24  C   UNL     1     112.643  74.345  79.509  0.00  0.00    +0.000 C 
ATOM     25  C   UNL     1     112.255  72.989  80.115  0.00  0.00    +0.000 C 
ATOM     26  C   UNL     1     111.614  72.061  79.098  0.00  0.00    +0.000 C 
ATOM     27  O   UNL     1     112.496  71.879  77.995  0.00  0.00    +0.000 OA
ATOM     28  C   UNL     1     112.627  73.089  77.252  0.00  0.00    +0.000 C 
ATOM     29  C   UNL     1     113.272  74.207  78.088  0.00  0.00    +0.000 C 
BRANCH  29  30
ATOM     30  N   UNL     1     113.338  75.471  77.335  0.00  0.00    +0.000 N 
ATOM     31  C   UNL     1     114.523  76.123  77.063  0.00  0.00    +0.000 C 
ATOM     32  O   UNL     1     115.596  75.788  77.546  0.00  0.00    +0.000 OA
ATOM     33  H   UNL     1     112.512  75.730  76.804  0.00  0.00    +0.000 HD
BRANCH  31  34
ATOM     34  C   UNL     1     114.385  77.361  76.124  0.00  0.00    +0.000 C 
BRANCH  34  35
ATOM     35  N   UNL     1     115.649  77.549  75.383  0.00  0.00    +0.000 NA
ATOM     36  H   UNL     1     115.911  76.655  74.961  0.00  0.00    +0.000 HD
ATOM     37  H   UNL     1     116.395  77.778  76.036  0.00  0.00    +0.000 HD
ENDBRANCH  34  35
BRANCH  34  38
ATOM     38  C   UNL     1     113.248  77.171  75.104  0.00  0.00    +0.000 C 
BRANCH  38  39
ATOM     39  C   UNL     1     113.351  78.128  73.925  0.00  0.00    +0.000 C 
BRANCH  39  40
ATOM     40  O   UNL     1     112.201  77.995  73.088  0.00  0.00    +0.000 OA
BRANCH  40  41
ATOM     41  C   UNL     1     112.473  77.231  71.901  0.00  0.00    +0.000 C 
BRANCH  41  42
ATOM     42  C   UNL     1     112.070  75.781  72.096  0.00  0.00    +0.000 C 
BRANCH  42  43
ATOM     43  O   UNL     1     110.681  75.784  72.327  0.00  0.00    +0.000 OA
ATOM     44  H   UNL     1     110.532  75.631  73.282  0.00  0.00    +0.000 HD
ENDBRANCH  42  43
ENDBRANCH  41  42
ENDBRANCH  40  41
ENDBRANCH  39  40
ENDBRANCH  38  39
ENDBRANCH  34  38
ENDBRANCH  31  34
ENDBRANCH  29  30
ENDBRANCH  23  24
ENDBRANCH   1  23
TORSDOF 19
ENDMDL
MODEL 9
REMARK VINA RESULT:      -5.6      2.468      6.069
REMARK  Name = 
REMARK  20 active torsions:
REMARK  status: ('A' for Active; 'I' for Inactive)
REMARK    1  A    between atoms: C_1  and  C_2
REMARK    2  A    between atoms: C_2  and  C_3
REMARK    3  A    between atoms: C_7  and  O_8
REMARK    4  A    between atoms: C_7  and  C_20
REMARK    5  A    between atoms: O_8  and  C_9
REMARK    6  A    between atoms: C_9  and  C_11
REMARK    7  A    between atoms: C_11  and  O_12
REMARK    8  A    between atoms: O_12  and  C_13
REMARK    9  A    between atoms: C_18  and  O_19
REMARK   10  A    between atoms: C_20  and  O_22
REMARK   11  A    between atoms: O_22  and  C_23
REMARK   12  A    between atoms: C_28  and  N_29
REMARK   13  A    between atoms: C_30  and  C_32
REMARK   14  A    between atoms: C_32  and  N_33
REMARK   15  A    between atoms: C_32  and  C_34
REMARK   16  A    between atoms: C_34  and  C_35
REMARK   17  A    between atoms: C_35  and  O_36
REMARK   18  A    between atoms: O_36  and  C_37
REMARK   19  A    between atoms: C_37  and  C_38
REMARK   20  A    between atoms: C_38  and  O_39
REMARK                            x       y       z     vdW  Elec       q    Type
REMARK                         _______ _______ _______ _____ _____    ______ ____
ROOT
ATOM      1  C   UNL     1     103.699  99.894  81.179  0.00  0.00    +0.000 C 
ATOM      2  O   UNL     1     103.195 100.975  81.456  0.00  0.00    +0.000 OA
ENDROOT
BRANCH   1   7
ATOM      3  C   UNL     1     105.586  98.551  82.280  0.00  0.00    +0.000 C 
ATOM      4  C   UNL     1     106.803  97.802  81.751  0.00  0.00    +0.000 C 
ATOM      5  C   UNL     1     106.542  97.667  80.260  0.00  0.00    +0.000 C 
ATOM      6  C   UNL     1     105.474  98.689  79.898  0.00  0.00    +0.000 C 
ATOM      7  C   UNL     1     105.253  99.594  81.150  0.00  0.00    +0.000 C 
BRANCH   3   9
ATOM      8  C   UNL     1     104.705  98.846  84.669  0.00  0.00    +0.000 C 
ATOM      9  C   UNL     1     105.842  99.129  83.688  0.00  0.00    +0.000 C 
ENDBRANCH   3   9
BRANCH   7  10
ATOM     10  O   UNL     1     106.296 100.607  81.186  0.00  0.00    +0.000 OA
BRANCH  10  11
ATOM     11  C   UNL     1     106.339 101.703  80.369  0.00  0.00    +0.000 C 
ATOM     12  O   UNL     1     106.623 101.700  79.175  0.00  0.00    +0.000 OA
BRANCH  11  13
ATOM     13  C   UNL     1     105.890 103.013  81.057  0.00  0.00    +0.000 C 
BRANCH  13  14
ATOM     14  O   UNL     1     104.842 103.758  80.446  0.00  0.00    +0.000 OA
BRANCH  14  15
ATOM     15  C   UNL     1     105.269 105.045  79.929  0.00  0.00    +0.000 C 
ATOM     16  C   UNL     1     105.775 106.009  81.014  0.00  0.00    +0.000 C 
ATOM     17  C   UNL     1     104.689 106.420  82.011  0.00  0.00    +0.000 C 
ATOM     18  C   UNL     1     103.405 106.912  81.345  0.00  0.00    +0.000 C 
ATOM     19  C   UNL     1     102.935 106.014  80.207  0.00  0.00    +0.000 C 
ATOM     20  C   UNL     1     104.063 105.701  79.223  0.00  0.00    +0.000 C 
BRANCH  20  21
ATOM     21  O   UNL     1     103.571 104.834  78.205  0.00  0.00    +0.000 OA
ATOM     22  H   UNL     1     102.611 104.750  78.375  0.00  0.00    +0.000 HD
ENDBRANCH  20  21
ENDBRANCH  14  15
ENDBRANCH  13  14
ENDBRANCH  11  13
ENDBRANCH  10  11
ENDBRANCH   7  10
ENDBRANCH   1   7
BRANCH   1  23
ATOM     23  O   UNL     1     102.965  98.766  80.919  0.00  0.00    +0.000 OA
BRANCH  23  24
ATOM     24  C   UNL     1     101.857  98.416  81.796  0.00  0.00    +0.000 C 
ATOM     25  C   UNL     1     101.957  96.929  82.168  0.00  0.00    +0.000 C 
ATOM     26  C   UNL     1     100.637  96.364  82.663  0.00  0.00    +0.000 C 
ATOM     27  O   UNL     1      99.632  96.564  81.674  0.00  0.00    +0.000 OA
ATOM     28  C   UNL     1      99.329  97.950  81.537  0.00  0.00    +0.000 C 
ATOM     29  C   UNL     1     100.539  98.754  81.032  0.00  0.00    +0.000 C 
BRANCH  29  30
ATOM     30  N   UNL     1     100.237 100.193  80.962  0.00  0.00    +0.000 N 
ATOM     31  C   UNL     1      99.542 100.766  79.916  0.00  0.00    +0.000 C 
ATOM     32  O   UNL     1      99.249 100.157  78.897  0.00  0.00    +0.000 OA
ATOM     33  H   UNL     1     100.338 100.723  81.822  0.00  0.00    +0.000 HD
BRANCH  31  34
ATOM     34  C   UNL     1      99.199 102.275  80.112  0.00  0.00    +0.000 C 
BRANCH  34  35
ATOM     35  N   UNL     1      98.833 102.508  81.524  0.00  0.00    +0.000 NA
ATOM     36  H   UNL     1      98.829 103.516  81.694  0.00  0.00    +0.000 HD
ATOM     37  H   UNL     1      99.557 102.127  82.130  0.00  0.00    +0.000 HD
ENDBRANCH  34  35
BRANCH  34  38
ATOM     38  C   UNL     1     100.399 103.175  79.766  0.00  0.00    +0.000 C 
BRANCH  38  39
ATOM     39  C   UNL     1     100.316 103.750  78.360  0.00  0.00    +0.000 C 
BRANCH  39  40
ATOM     40  O   UNL     1      98.951 103.994  78.013  0.00  0.00    +0.000 OA
BRANCH  40  41
ATOM     41  C   UNL     1      98.715 103.872  76.600  0.00  0.00    +0.000 C 
BRANCH  41  42
ATOM     42  C   UNL     1      98.702 102.413  76.184  0.00  0.00    +0.000 C 
BRANCH  42  43
ATOM     43  O   UNL     1      98.616 102.403  74.779  0.00  0.00    +0.000 OA
ATOM     44  H   UNL     1      99.521 102.310  74.419  0.00  0.00    +0.000 HD
ENDBRANCH  42  43
ENDBRANCH  41  42
ENDBRANCH  40  41
ENDBRANCH  39  40
ENDBRANCH  38  39
ENDBRANCH  34  38
ENDBRANCH  31  34
ENDBRANCH  29  30
ENDBRANCH  23  24
ENDBRANCH   1  23
TORSDOF 19
ENDMDL
