MODEL 1
REMARK VINA RESULT:      -5.3      0.000      0.000
REMARK  Name = 
REMARK  14 active torsions:
REMARK  status: ('A' for Active; 'I' for Inactive)
REMARK    1  A    between atoms: C_1  and  O_2
REMARK    2  A    between atoms: O_2  and  C_3
REMARK    3  A    between atoms: C_3  and  O_4
REMARK    4  A    between atoms: C_5  and  C_6
REMARK    5  A    between atoms: C_6  and  O_7
REMARK    6  A    between atoms: C_6  and  C_8
REMARK    7  A    between atoms: C_8  and  S_9
REMARK    8  A    between atoms: S_9  and  C_10
REMARK    9  A    between atoms: C_10  and  P_11
REMARK   10  A    between atoms: C_10  and  P_15
REMARK   11  A    between atoms: P_11  and  O_13
REMARK   12  A    between atoms: P_11  and  O_14
REMARK   13  A    between atoms: P_15  and  O_17
REMARK   14  A    between atoms: P_15  and  O_18
REMARK                            x       y       z     vdW  Elec       q    Type
REMARK                         _______ _______ _______ _____ _____    ______ ____
ROOT
ATOM      1  C   UNL     1     113.300  75.066  83.544  0.00  0.00    +0.000 C 
ENDROOT
BRANCH   1   2
ATOM      2  P   UNL     1     114.300  76.560  83.205  0.00  0.00    +0.000 P 
ATOM      3  O   UNL     1     113.371  76.999  82.075  0.00  0.00    +0.000 OA
BRANCH   2   4
ATOM      4  O   UNL     1     113.672  77.358  84.497  0.00  0.00    +0.000 OA
ATOM      5  H   UNL     1     112.691  77.233  84.512  0.00  0.00    +0.000 HD
ENDBRANCH   2   4
BRANCH   2   6
ATOM      6  O   UNL     1     115.245  77.973  82.885  0.00  0.00    +0.000 OA
ATOM      7  H   UNL     1     116.114  77.790  83.298  0.00  0.00    +0.000 HD
ENDBRANCH   2   6
ENDBRANCH   1   2
BRANCH   1   8
ATOM      8  P   UNL     1     112.049  75.404  84.882  0.00  0.00    +0.000 P 
ATOM      9  O   UNL     1     111.098  76.540  84.642  0.00  0.00    +0.000 OA
BRANCH   8  10
ATOM     10  O   UNL     1     111.223  74.027  85.064  0.00  0.00    +0.000 OA
ATOM     11  H   UNL     1     111.437  73.602  85.919  0.00  0.00    +0.000 HD
ENDBRANCH   8  10
BRANCH   8  12
ATOM     12  O   UNL     1     112.708  75.499  86.338  0.00  0.00    +0.000 OA
ATOM     13  H   UNL     1     112.994  74.612  86.634  0.00  0.00    +0.000 HD
ENDBRANCH   8  12
ENDBRANCH   1   8
BRANCH   1  14
ATOM     14  S   UNL     1     111.988  74.930  82.136  0.00  0.00    +0.000 S 
BRANCH  14  15
ATOM     15  C   UNL     1     112.605  73.608  81.071  0.00  0.00    +0.000 C 
BRANCH  15  16
ATOM     16  C   UNL     1     111.568  72.514  80.818  0.00  0.00    +0.000 C 
BRANCH  16  18
ATOM     17  C   UNL     1     110.318  72.694  78.641  0.00  0.00    +0.000 C 
ATOM     18  C   UNL     1     111.391  72.329  79.342  0.00  0.00    +0.000 C 
BRANCH  17  20
ATOM     19  C   UNL     1     111.161  73.067  76.500  0.00  0.00    +0.000 C 
ATOM     20  O   UNL     1     110.216  72.376  77.310  0.00  0.00    +0.000 OA
ENDBRANCH  17  20
BRANCH  17  21
ATOM     21  O   UNL     1     109.254  73.294  79.284  0.00  0.00    +0.000 OA
ATOM     22  H   UNL     1     108.622  72.588  79.486  0.00  0.00    +0.000 HD
ENDBRANCH  17  21
ENDBRANCH  16  18
BRANCH  16  23
ATOM     23  O   UNL     1     111.963  71.285  81.424  0.00  0.00    +0.000 OA
ATOM     24  H   UNL     1     112.945  71.279  81.395  0.00  0.00    +0.000 HD
ENDBRANCH  16  23
ENDBRANCH  15  16
ENDBRANCH  14  15
ENDBRANCH   1  14
TORSDOF 13
ENDMDL
MODEL 2
REMARK VINA RESULT:      -5.3      1.301      2.150
REMARK  Name = 
REMARK  14 active torsions:
REMARK  status: ('A' for Active; 'I' for Inactive)
REMARK    1  A    between atoms: C_1  and  O_2
REMARK    2  A    between atoms: O_2  and  C_3
REMARK    3  A    between atoms: C_3  and  O_4
REMARK    4  A    between atoms: C_5  and  C_6
REMARK    5  A    between atoms: C_6  and  O_7
REMARK    6  A    between atoms: C_6  and  C_8
REMARK    7  A    between atoms: C_8  and  S_9
REMARK    8  A    between atoms: S_9  and  C_10
REMARK    9  A    between atoms: C_10  and  P_11
REMARK   10  A    between atoms: C_10  and  P_15
REMARK   11  A    between atoms: P_11  and  O_13
REMARK   12  A    between atoms: P_11  and  O_14
REMARK   13  A    between atoms: P_15  and  O_17
REMARK   14  A    between atoms: P_15  and  O_18
REMARK                            x       y       z     vdW  Elec       q    Type
REMARK                         _______ _______ _______ _____ _____    ______ ____
ROOT
ATOM      1  C   UNL     1     113.765  75.756  83.526  0.00  0.00    +0.000 C 
ENDROOT
BRANCH   1   2
ATOM      2  P   UNL     1     114.927  77.091  83.993  0.00  0.00    +0.000 P 
ATOM      3  O   UNL     1     115.007  77.605  82.556  0.00  0.00    +0.000 OA
BRANCH   2   4
ATOM      4  O   UNL     1     113.723  78.014  84.623  0.00  0.00    +0.000 OA
ATOM      5  H   UNL     1     113.519  77.703  85.539  0.00  0.00    +0.000 HD
ENDBRANCH   2   4
BRANCH   2   6
ATOM      6  O   UNL     1     116.025  78.353  84.433  0.00  0.00    +0.000 OA
ATOM      7  H   UNL     1     116.750  78.291  83.777  0.00  0.00    +0.000 HD
ENDBRANCH   2   6
ENDBRANCH   1   2
BRANCH   1   8
ATOM      8  P   UNL     1     112.519  75.468  84.882  0.00  0.00    +0.000 P 
ATOM      9  O   UNL     1     113.027  75.560  86.291  0.00  0.00    +0.000 OA
BRANCH   8  10
ATOM     10  O   UNL     1     111.357  76.565  84.644  0.00  0.00    +0.000 OA
ATOM     11  H   UNL     1     111.739  77.460  84.539  0.00  0.00    +0.000 HD
ENDBRANCH   8  10
BRANCH   8  12
ATOM     12  O   UNL     1     111.660  74.136  84.661  0.00  0.00    +0.000 OA
ATOM     13  H   UNL     1     111.056  73.998  85.417  0.00  0.00    +0.000 HD
ENDBRANCH   8  12
ENDBRANCH   1   8
BRANCH   1  14
ATOM     14  S   UNL     1     112.486  76.520  82.300  0.00  0.00    +0.000 S 
BRANCH  14  15
ATOM     15  C   UNL     1     112.668  75.541  80.792  0.00  0.00    +0.000 C 
BRANCH  15  16
ATOM     16  C   UNL     1     112.744  74.038  81.063  0.00  0.00    +0.000 C 
BRANCH  16  18
ATOM     17  C   UNL     1     111.445  72.032  80.275  0.00  0.00    +0.000 C 
ATOM     18  C   UNL     1     111.749  73.327  80.199  0.00  0.00    +0.000 C 
BRANCH  17  20
ATOM     19  C   UNL     1     109.824  72.419  78.646  0.00  0.00    +0.000 C 
ATOM     20  O   UNL     1     110.598  71.461  79.359  0.00  0.00    +0.000 OA
ENDBRANCH  17  20
BRANCH  17  21
ATOM     21  O   UNL     1     112.074  71.237  81.212  0.00  0.00    +0.000 OA
ATOM     22  H   UNL     1     111.390  70.663  81.589  0.00  0.00    +0.000 HD
ENDBRANCH  17  21
ENDBRANCH  16  18
BRANCH  16  23
ATOM     23  O   UNL     1     114.056  73.540  80.816  0.00  0.00    +0.000 OA
ATOM     24  H   UNL     1     114.669  74.245  81.120  0.00  0.00    +0.000 HD
ENDBRANCH  16  23
ENDBRANCH  15  16
ENDBRANCH  14  15
ENDBRANCH   1  14
TORSDOF 13
ENDMDL
MODEL 3
REMARK VINA RESULT:      -5.3      3.456      6.844
REMARK  Name = 
REMARK  14 active torsions:
REMARK  status: ('A' for Active; 'I' for Inactive)
REMARK    1  A    between atoms: C_1  and  O_2
REMARK    2  A    between atoms: O_2  and  C_3
REMARK    3  A    between atoms: C_3  and  O_4
REMARK    4  A    between atoms: C_5  and  C_6
REMARK    5  A    between atoms: C_6  and  O_7
REMARK    6  A    between atoms: C_6  and  C_8
REMARK    7  A    between atoms: C_8  and  S_9
REMARK    8  A    between atoms: S_9  and  C_10
REMARK    9  A    between atoms: C_10  and  P_11
REMARK   10  A    between atoms: C_10  and  P_15
REMARK   11  A    between atoms: P_11  and  O_13
REMARK   12  A    between atoms: P_11  and  O_14
REMARK   13  A    between atoms: P_15  and  O_17
REMARK   14  A    between atoms: P_15  and  O_18
REMARK                            x       y       z     vdW  Elec       q    Type
REMARK                         _______ _______ _______ _____ _____    ______ ____
ROOT
ATOM      1  C   UNL     1     112.350  73.116  77.799  0.00  0.00    +0.000 C 
ENDROOT
BRANCH   1   2
ATOM      2  P   UNL     1     112.321  72.693  76.019  0.00  0.00    +0.000 P 
ATOM      3  O   UNL     1     111.497  71.432  76.271  0.00  0.00    +0.000 OA
BRANCH   2   4
ATOM      4  O   UNL     1     111.157  73.808  75.701  0.00  0.00    +0.000 OA
ATOM      5  H   UNL     1     110.541  73.450  75.015  0.00  0.00    +0.000 HD
ENDBRANCH   2   4
BRANCH   2   6
ATOM      6  O   UNL     1     112.293  72.292  74.336  0.00  0.00    +0.000 OA
ATOM      7  H   UNL     1     111.930  71.383  74.303  0.00  0.00    +0.000 HD
ENDBRANCH   2   6
ENDBRANCH   1   2
BRANCH   1   8
ATOM      8  P   UNL     1     110.739  72.648  78.610  0.00  0.00    +0.000 P 
ATOM      9  O   UNL     1     110.391  73.372  79.878  0.00  0.00    +0.000 OA
BRANCH   8  10
ATOM     10  O   UNL     1     109.599  72.912  77.497  0.00  0.00    +0.000 OA
ATOM     11  H   UNL     1     109.841  72.496  76.645  0.00  0.00    +0.000 HD
ENDBRANCH   8  10
BRANCH   8  12
ATOM     12  O   UNL     1     110.568  71.066  78.780  0.00  0.00    +0.000 OA
ATOM     13  H   UNL     1     110.127  70.866  79.630  0.00  0.00    +0.000 HD
ENDBRANCH   8  12
ENDBRANCH   1   8
BRANCH   1  14
ATOM     14  S   UNL     1     113.376  71.748  78.691  0.00  0.00    +0.000 S 
BRANCH  14  15
ATOM     15  C   UNL     1     113.813  72.480  80.284  0.00  0.00    +0.000 C 
BRANCH  15  16
ATOM     16  C   UNL     1     113.442  71.589  81.471  0.00  0.00    +0.000 C 
BRANCH  16  18
ATOM     17  C   UNL     1     113.029  73.344  83.226  0.00  0.00    +0.000 C 
ATOM     18  C   UNL     1     113.730  72.318  82.747  0.00  0.00    +0.000 C 
BRANCH  17  20
ATOM     19  C   UNL     1     112.614  75.111  84.688  0.00  0.00    +0.000 C 
ATOM     20  O   UNL     1     113.448  74.008  84.351  0.00  0.00    +0.000 OA
ENDBRANCH  17  20
BRANCH  17  21
ATOM     21  O   UNL     1     111.938  73.814  82.523  0.00  0.00    +0.000 OA
ATOM     22  H   UNL     1     112.129  73.659  81.585  0.00  0.00    +0.000 HD
ENDBRANCH  17  21
ENDBRANCH  16  18
BRANCH  16  23
ATOM     23  O   UNL     1     112.069  71.213  81.418  0.00  0.00    +0.000 OA
ATOM     24  H   UNL     1     111.704  71.414  82.308  0.00  0.00    +0.000 HD
ENDBRANCH  16  23
ENDBRANCH  15  16
ENDBRANCH  14  15
ENDBRANCH   1  14
TORSDOF 13
ENDMDL
MODEL 4
REMARK VINA RESULT:      -5.2     37.243     39.777
REMARK  Name = 
REMARK  14 active torsions:
REMARK  status: ('A' for Active; 'I' for Inactive)
REMARK    1  A    between atoms: C_1  and  O_2
REMARK    2  A    between atoms: O_2  and  C_3
REMARK    3  A    between atoms: C_3  and  O_4
REMARK    4  A    between atoms: C_5  and  C_6
REMARK    5  A    between atoms: C_6  and  O_7
REMARK    6  A    between atoms: C_6  and  C_8
REMARK    7  A    between atoms: C_8  and  S_9
REMARK    8  A    between atoms: S_9  and  C_10
REMARK    9  A    between atoms: C_10  and  P_11
REMARK   10  A    between atoms: C_10  and  P_15
REMARK   11  A    between atoms: P_11  and  O_13
REMARK   12  A    between atoms: P_11  and  O_14
REMARK   13  A    between atoms: P_15  and  O_17
REMARK   14  A    between atoms: P_15  and  O_18
REMARK                            x       y       z     vdW  Elec       q    Type
REMARK                         _______ _______ _______ _____ _____    ______ ____
ROOT
ATOM      1  C   UNL     1     107.222 106.210 107.843  0.00  0.00    +0.000 C 
ENDROOT
BRANCH   1   2
ATOM      2  P   UNL     1     106.149 107.287 108.862  0.00  0.00    +0.000 P 
ATOM      3  O   UNL     1     107.041 108.504 108.621  0.00  0.00    +0.000 OA
BRANCH   2   4
ATOM      4  O   UNL     1     105.037 107.432 107.661  0.00  0.00    +0.000 OA
ATOM      5  H   UNL     1     105.127 106.669 107.039  0.00  0.00    +0.000 HD
ENDBRANCH   2   4
BRANCH   2   6
ATOM      6  O   UNL     1     105.135 108.306 109.824  0.00  0.00    +0.000 OA
ATOM      7  H   UNL     1     105.136 109.168 109.360  0.00  0.00    +0.000 HD
ENDBRANCH   2   6
ENDBRANCH   1   2
BRANCH   1   8
ATOM      8  P   UNL     1     106.219 104.870 107.025  0.00  0.00    +0.000 P 
ATOM      9  O   UNL     1     105.020 104.374 107.778  0.00  0.00    +0.000 OA
BRANCH   8  10
ATOM     10  O   UNL     1     105.758 105.480 105.601  0.00  0.00    +0.000 OA
ATOM     11  H   UNL     1     105.739 106.458 105.631  0.00  0.00    +0.000 HD
ENDBRANCH   8  10
BRANCH   8  12
ATOM     12  O   UNL     1     107.118 103.654 106.501  0.00  0.00    +0.000 OA
ATOM     13  H   UNL     1     108.040 103.762 106.810  0.00  0.00    +0.000 HD
ENDBRANCH   8  12
ENDBRANCH   1   8
BRANCH   1  14
ATOM     14  S   UNL     1     107.583 107.158 106.202  0.00  0.00    +0.000 S 
BRANCH  14  15
ATOM     15  C   UNL     1     109.148 106.469 105.619  0.00  0.00    +0.000 C 
BRANCH  15  16
ATOM     16  C   UNL     1     109.299 106.535 104.099  0.00  0.00    +0.000 C 
BRANCH  16  18
ATOM     17  C   UNL     1     108.682 104.221 103.327  0.00  0.00    +0.000 C 
ATOM     18  C   UNL     1     109.590 105.165 103.569  0.00  0.00    +0.000 C 
BRANCH  17  20
ATOM     19  C   UNL     1     108.007 102.018 102.977  0.00  0.00    +0.000 C 
ATOM     20  O   UNL     1     109.072 102.962 102.946  0.00  0.00    +0.000 OA
ENDBRANCH  17  20
BRANCH  17  21
ATOM     21  O   UNL     1     107.348 104.478 103.571  0.00  0.00    +0.000 OA
ATOM     22  H   UNL     1     107.301 104.866 104.458  0.00  0.00    +0.000 HD
ENDBRANCH  17  21
ENDBRANCH  16  18
BRANCH  16  23
ATOM     23  O   UNL     1     108.122 107.059 103.491  0.00  0.00    +0.000 OA
ATOM     24  H   UNL     1     108.416 107.843 102.975  0.00  0.00    +0.000 HD
ENDBRANCH  16  23
ENDBRANCH  15  16
ENDBRANCH  14  15
ENDBRANCH   1  14
TORSDOF 13
ENDMDL
MODEL 5
REMARK VINA RESULT:      -5.1      1.756      2.678
REMARK  Name = 
REMARK  14 active torsions:
REMARK  status: ('A' for Active; 'I' for Inactive)
REMARK    1  A    between atoms: C_1  and  O_2
REMARK    2  A    between atoms: O_2  and  C_3
REMARK    3  A    between atoms: C_3  and  O_4
REMARK    4  A    between atoms: C_5  and  C_6
REMARK    5  A    between atoms: C_6  and  O_7
REMARK    6  A    between atoms: C_6  and  C_8
REMARK    7  A    between atoms: C_8  and  S_9
REMARK    8  A    between atoms: S_9  and  C_10
REMARK    9  A    between atoms: C_10  and  P_11
REMARK   10  A    between atoms: C_10  and  P_15
REMARK   11  A    between atoms: P_11  and  O_13
REMARK   12  A    between atoms: P_11  and  O_14
REMARK   13  A    between atoms: P_15  and  O_17
REMARK   14  A    between atoms: P_15  and  O_18
REMARK                            x       y       z     vdW  Elec       q    Type
REMARK                         _______ _______ _______ _____ _____    ______ ____
ROOT
ATOM      1  C   UNL     1     113.304  75.038  84.055  0.00  0.00    +0.000 C 
ENDROOT
BRANCH   1   2
ATOM      2  P   UNL     1     114.086  75.710  85.567  0.00  0.00    +0.000 P 
ATOM      3  O   UNL     1     113.899  77.151  85.094  0.00  0.00    +0.000 OA
BRANCH   2   4
ATOM      4  O   UNL     1     112.731  75.463  86.462  0.00  0.00    +0.000 OA
ATOM      5  H   UNL     1     112.590  74.491  86.579  0.00  0.00    +0.000 HD
ENDBRANCH   2   4
BRANCH   2   6
ATOM      6  O   UNL     1     114.825  76.347  86.996  0.00  0.00    +0.000 OA
ATOM      7  H   UNL     1     114.551  75.736  87.711  0.00  0.00    +0.000 HD
ENDBRANCH   2   6
ENDBRANCH   1   2
BRANCH   1   8
ATOM      8  P   UNL     1     111.523  75.573  83.945  0.00  0.00    +0.000 P 
ATOM      9  O   UNL     1     110.905  75.572  82.578  0.00  0.00    +0.000 OA
BRANCH   8  10
ATOM     10  O   UNL     1     110.707  74.573  84.917  0.00  0.00    +0.000 OA
ATOM     11  H   UNL     1     111.305  73.909  85.315  0.00  0.00    +0.000 HD
ENDBRANCH   8  10
BRANCH   8  12
ATOM     12  O   UNL     1     111.242  76.953  84.706  0.00  0.00    +0.000 OA
ATOM     13  H   UNL     1     111.551  77.705  84.162  0.00  0.00    +0.000 HD
ENDBRANCH   8  12
ENDBRANCH   1   8
BRANCH   1  14
ATOM     14  S   UNL     1     113.887  76.134  82.579  0.00  0.00    +0.000 S 
BRANCH  14  15
ATOM     15  C   UNL     1     114.224  74.957  81.250  0.00  0.00    +0.000 C 
BRANCH  15  16
ATOM     16  C   UNL     1     113.767  73.537  81.582  0.00  0.00    +0.000 C 
BRANCH  16  18
ATOM     17  C   UNL     1     111.921  72.038  80.756  0.00  0.00    +0.000 C 
ATOM     18  C   UNL     1     112.662  73.140  80.651  0.00  0.00    +0.000 C 
BRANCH  17  20
ATOM     19  C   UNL     1     111.612  71.464  78.519  0.00  0.00    +0.000 C 
ATOM     20  O   UNL     1     111.009  71.718  79.783  0.00  0.00    +0.000 OA
ENDBRANCH  17  20
BRANCH  17  21
ATOM     21  O   UNL     1     112.154  71.155  81.792  0.00  0.00    +0.000 OA
ATOM     22  H   UNL     1     112.471  71.685  82.538  0.00  0.00    +0.000 HD
ENDBRANCH  17  21
ENDBRANCH  16  18
BRANCH  16  23
ATOM     23  O   UNL     1     114.849  72.615  81.483  0.00  0.00    +0.000 OA
ATOM     24  H   UNL     1     114.436  71.738  81.320  0.00  0.00    +0.000 HD
ENDBRANCH  16  23
ENDBRANCH  15  16
ENDBRANCH  14  15
ENDBRANCH   1  14
TORSDOF 13
ENDMDL
MODEL 6
REMARK VINA RESULT:      -5.0      1.588      3.150
REMARK  Name = 
REMARK  14 active torsions:
REMARK  status: ('A' for Active; 'I' for Inactive)
REMARK    1  A    between atoms: C_1  and  O_2
REMARK    2  A    between atoms: O_2  and  C_3
REMARK    3  A    between atoms: C_3  and  O_4
REMARK    4  A    between atoms: C_5  and  C_6
REMARK    5  A    between atoms: C_6  and  O_7
REMARK    6  A    between atoms: C_6  and  C_8
REMARK    7  A    between atoms: C_8  and  S_9
REMARK    8  A    between atoms: S_9  and  C_10
REMARK    9  A    between atoms: C_10  and  P_11
REMARK   10  A    between atoms: C_10  and  P_15
REMARK   11  A    between atoms: P_11  and  O_13
REMARK   12  A    between atoms: P_11  and  O_14
REMARK   13  A    between atoms: P_15  and  O_17
REMARK   14  A    between atoms: P_15  and  O_18
REMARK                            x       y       z     vdW  Elec       q    Type
REMARK                         _______ _______ _______ _____ _____    ______ ____
ROOT
ATOM      1  C   UNL     1     112.796  76.072  84.061  0.00  0.00    +0.000 C 
ENDROOT
BRANCH   1   2
ATOM      2  P   UNL     1     111.654  75.037  85.047  0.00  0.00    +0.000 P 
ATOM      3  O   UNL     1     112.336  75.427  86.357  0.00  0.00    +0.000 OA
BRANCH   2   4
ATOM      4  O   UNL     1     110.447  76.146  84.943  0.00  0.00    +0.000 OA
ATOM      5  H   UNL     1     110.839  77.042  84.797  0.00  0.00    +0.000 HD
ENDBRANCH   2   4
BRANCH   2   6
ATOM      6  O   UNL     1     110.575  74.058  85.980  0.00  0.00    +0.000 OA
ATOM      7  H   UNL     1     111.047  73.903  86.824  0.00  0.00    +0.000 HD
ENDBRANCH   2   6
ENDBRANCH   1   2
BRANCH   1   8
ATOM      8  P   UNL     1     114.505  76.053  84.803  0.00  0.00    +0.000 P 
ATOM      9  O   UNL     1     115.637  76.423  83.890  0.00  0.00    +0.000 OA
BRANCH   8  10
ATOM     10  O   UNL     1     114.449  77.078  86.050  0.00  0.00    +0.000 OA
ATOM     11  H   UNL     1     114.135  77.959  85.764  0.00  0.00    +0.000 HD
ENDBRANCH   8  10
BRANCH   8  12
ATOM     12  O   UNL     1     114.820  74.701  85.599  0.00  0.00    +0.000 OA
ATOM     13  H   UNL     1     115.695  74.763  86.031  0.00  0.00    +0.000 HD
ENDBRANCH   8  12
ENDBRANCH   1   8
BRANCH   1  14
ATOM     14  S   UNL     1     113.292  75.046  82.504  0.00  0.00    +0.000 S 
BRANCH  14  15
ATOM     15  C   UNL     1     112.917  73.337  82.953  0.00  0.00    +0.000 C 
BRANCH  15  16
ATOM     16  C   UNL     1     111.910  72.680  82.008  0.00  0.00    +0.000 C 
BRANCH  16  18
ATOM     17  C   UNL     1     111.447  72.889  79.544  0.00  0.00    +0.000 C 
ATOM     18  C   UNL     1     111.954  73.368  80.679  0.00  0.00    +0.000 C 
BRANCH  17  20
ATOM     19  C   UNL     1     112.942  74.122  78.249  0.00  0.00    +0.000 C 
ATOM     20  O   UNL     1     111.642  73.555  78.360  0.00  0.00    +0.000 OA
ENDBRANCH  17  20
BRANCH  17  21
ATOM     21  O   UNL     1     110.822  71.659  79.541  0.00  0.00    +0.000 OA
ATOM     22  H   UNL     1     110.411  71.562  78.668  0.00  0.00    +0.000 HD
ENDBRANCH  17  21
ENDBRANCH  16  18
BRANCH  16  23
ATOM     23  O   UNL     1     112.187  71.291  81.853  0.00  0.00    +0.000 OA
ATOM     24  H   UNL     1     113.158  71.199  81.972  0.00  0.00    +0.000 HD
ENDBRANCH  16  23
ENDBRANCH  15  16
ENDBRANCH  14  15
ENDBRANCH   1  14
TORSDOF 13
ENDMDL
MODEL 7
REMARK VINA RESULT:      -5.0      1.570      2.372
REMARK  Name = 
REMARK  14 active torsions:
REMARK  status: ('A' for Active; 'I' for Inactive)
REMARK    1  A    between atoms: C_1  and  O_2
REMARK    2  A    between atoms: O_2  and  C_3
REMARK    3  A    between atoms: C_3  and  O_4
REMARK    4  A    between atoms: C_5  and  C_6
REMARK    5  A    between atoms: C_6  and  O_7
REMARK    6  A    between atoms: C_6  and  C_8
REMARK    7  A    between atoms: C_8  and  S_9
REMARK    8  A    between atoms: S_9  and  C_10
REMARK    9  A    between atoms: C_10  and  P_11
REMARK   10  A    between atoms: C_10  and  P_15
REMARK   11  A    between atoms: P_11  and  O_13
REMARK   12  A    between atoms: P_11  and  O_14
REMARK   13  A    between atoms: P_15  and  O_17
REMARK   14  A    between atoms: P_15  and  O_18
REMARK                            x       y       z     vdW  Elec       q    Type
REMARK                         _______ _______ _______ _____ _____    ______ ____
ROOT
ATOM      1  C   UNL     1     113.357  75.553  83.484  0.00  0.00    +0.000 C 
ENDROOT
BRANCH   1   2
ATOM      2  P   UNL     1     111.603  76.040  83.300  0.00  0.00    +0.000 P 
ATOM      3  O   UNL     1     111.122  74.841  84.116  0.00  0.00    +0.000 OA
BRANCH   2   4
ATOM      4  O   UNL     1     111.735  77.208  84.448  0.00  0.00    +0.000 OA
ATOM      5  H   UNL     1     110.919  77.209  85.007  0.00  0.00    +0.000 HD
ENDBRANCH   2   4
BRANCH   2   6
ATOM      6  O   UNL     1     109.944  76.500  83.127  0.00  0.00    +0.000 OA
ATOM      7  H   UNL     1     109.975  77.417  82.782  0.00  0.00    +0.000 HD
ENDBRANCH   2   6
ENDBRANCH   1   2
BRANCH   1   8
ATOM      8  P   UNL     1     113.954  75.893  85.216  0.00  0.00    +0.000 P 
ATOM      9  O   UNL     1     114.324  77.312  85.532  0.00  0.00    +0.000 OA
BRANCH   8  10
ATOM     10  O   UNL     1     112.760  75.407  86.190  0.00  0.00    +0.000 OA
ATOM     11  H   UNL     1     112.395  74.550  85.893  0.00  0.00    +0.000 HD
ENDBRANCH   8  10
BRANCH   8  12
ATOM     12  O   UNL     1     115.097  74.876  85.689  0.00  0.00    +0.000 OA
ATOM     13  H   UNL     1     114.814  73.955  85.525  0.00  0.00    +0.000 HD
ENDBRANCH   8  12
ENDBRANCH   1   8
BRANCH   1  14
ATOM     14  S   UNL     1     113.395  73.634  83.681  0.00  0.00    +0.000 S 
BRANCH  14  15
ATOM     15  C   UNL     1     113.600  73.012  81.997  0.00  0.00    +0.000 C 
BRANCH  15  16
ATOM     16  C   UNL     1     112.271  72.663  81.325  0.00  0.00    +0.000 C 
BRANCH  16  18
ATOM     17  C   UNL     1     111.354  73.162  79.036  0.00  0.00    +0.000 C 
ATOM     18  C   UNL     1     112.377  72.917  79.853  0.00  0.00    +0.000 C 
BRANCH  17  20
ATOM     19  C   UNL     1     112.031  72.064  77.094  0.00  0.00    +0.000 C 
ATOM     20  O   UNL     1     111.556  73.270  77.683  0.00  0.00    +0.000 OA
ENDBRANCH  17  20
BRANCH  17  21
ATOM     21  O   UNL     1     110.070  73.193  79.539  0.00  0.00    +0.000 OA
ATOM     22  H   UNL     1     110.074  72.642  80.337  0.00  0.00    +0.000 HD
ENDBRANCH  17  21
ENDBRANCH  16  18
BRANCH  16  23
ATOM     23  O   UNL     1     111.918  71.304  81.567  0.00  0.00    +0.000 OA
ATOM     24  H   UNL     1     111.968  70.858  80.692  0.00  0.00    +0.000 HD
ENDBRANCH  16  23
ENDBRANCH  15  16
ENDBRANCH  14  15
ENDBRANCH   1  14
TORSDOF 13
ENDMDL
MODEL 8
REMARK VINA RESULT:      -5.0      1.719      2.364
REMARK  Name = 
REMARK  14 active torsions:
REMARK  status: ('A' for Active; 'I' for Inactive)
REMARK    1  A    between atoms: C_1  and  O_2
REMARK    2  A    between atoms: O_2  and  C_3
REMARK    3  A    between atoms: C_3  and  O_4
REMARK    4  A    between atoms: C_5  and  C_6
REMARK    5  A    between atoms: C_6  and  O_7
REMARK    6  A    between atoms: C_6  and  C_8
REMARK    7  A    between atoms: C_8  and  S_9
REMARK    8  A    between atoms: S_9  and  C_10
REMARK    9  A    between atoms: C_10  and  P_11
REMARK   10  A    between atoms: C_10  and  P_15
REMARK   11  A    between atoms: P_11  and  O_13
REMARK   12  A    between atoms: P_11  and  O_14
REMARK   13  A    between atoms: P_15  and  O_17
REMARK   14  A    between atoms: P_15  and  O_18
REMARK                            x       y       z     vdW  Elec       q    Type
REMARK                         _______ _______ _______ _____ _____    ______ ____
ROOT
ATOM      1  C   UNL     1     114.654  75.461  83.675  0.00  0.00    +0.000 C 
ENDROOT
BRANCH   1   2
ATOM      2  P   UNL     1     114.978  76.573  82.259  0.00  0.00    +0.000 P 
ATOM      3  O   UNL     1     113.507  76.974  82.161  0.00  0.00    +0.000 OA
BRANCH   2   4
ATOM      4  O   UNL     1     115.591  77.747  83.231  0.00  0.00    +0.000 OA
ATOM      5  H   UNL     1     115.407  77.517  84.175  0.00  0.00    +0.000 HD
ENDBRANCH   2   4
BRANCH   2   6
ATOM      6  O   UNL     1     115.283  77.625  80.920  0.00  0.00    +0.000 OA
ATOM      7  H   UNL     1     115.904  77.127  80.349  0.00  0.00    +0.000 HD
ENDBRANCH   2   6
ENDBRANCH   1   2
BRANCH   1   8
ATOM      8  P   UNL     1     114.360  76.446  85.229  0.00  0.00    +0.000 P 
ATOM      9  O   UNL     1     115.576  76.991  85.919  0.00  0.00    +0.000 OA
BRANCH   8  10
ATOM     10  O   UNL     1     113.385  77.660  84.796  0.00  0.00    +0.000 OA
ATOM     11  H   UNL     1     113.877  78.505  84.759  0.00  0.00    +0.000 HD
ENDBRANCH   8  10
BRANCH   8  12
ATOM     12  O   UNL     1     113.392  75.700  86.263  0.00  0.00    +0.000 OA
ATOM     13  H   UNL     1     112.459  75.825  85.998  0.00  0.00    +0.000 HD
ENDBRANCH   8  12
ENDBRANCH   1   8
BRANCH   1  14
ATOM     14  S   UNL     1     112.825  74.864  83.522  0.00  0.00    +0.000 S 
BRANCH  14  15
ATOM     15  C   UNL     1     112.957  73.101  83.152  0.00  0.00    +0.000 C 
BRANCH  15  16
ATOM     16  C   UNL     1     112.047  72.664  82.003  0.00  0.00    +0.000 C 
BRANCH  16  18
ATOM     17  C   UNL     1     111.775  73.354  79.599  0.00  0.00    +0.000 C 
ATOM     18  C   UNL     1     112.430  73.402  80.758  0.00  0.00    +0.000 C 
BRANCH  17  20
ATOM     19  C   UNL     1     113.266  74.960  78.805  0.00  0.00    +0.000 C 
ATOM     20  O   UNL     1     112.279  73.984  78.489  0.00  0.00    +0.000 OA
ENDBRANCH  17  20
BRANCH  17  21
ATOM     21  O   UNL     1     110.644  72.571  79.485  0.00  0.00    +0.000 OA
ATOM     22  H   UNL     1     110.146  72.687  80.309  0.00  0.00    +0.000 HD
ENDBRANCH  17  21
ENDBRANCH  16  18
BRANCH  16  23
ATOM     23  O   UNL     1     112.134  71.258  81.789  0.00  0.00    +0.000 OA
ATOM     24  H   UNL     1     111.515  71.063  81.051  0.00  0.00    +0.000 HD
ENDBRANCH  16  23
ENDBRANCH  15  16
ENDBRANCH  14  15
ENDBRANCH   1  14
TORSDOF 13
ENDMDL
MODEL 9
REMARK VINA RESULT:      -4.9      2.188      3.988
REMARK  Name = 
REMARK  14 active torsions:
REMARK  status: ('A' for Active; 'I' for Inactive)
REMARK    1  A    between atoms: C_1  and  O_2
REMARK    2  A    between atoms: O_2  and  C_3
REMARK    3  A    between atoms: C_3  and  O_4
REMARK    4  A    between atoms: C_5  and  C_6
REMARK    5  A    between atoms: C_6  and  O_7
REMARK    6  A    between atoms: C_6  and  C_8
REMARK    7  A    between atoms: C_8  and  S_9
REMARK    8  A    between atoms: S_9  and  C_10
REMARK    9  A    between atoms: C_10  and  P_11
REMARK   10  A    between atoms: C_10  and  P_15
REMARK   11  A    between atoms: P_11  and  O_13
REMARK   12  A    between atoms: P_11  and  O_14
REMARK   13  A    between atoms: P_15  and  O_17
REMARK   14  A    between atoms: P_15  and  O_18
REMARK                            x       y       z     vdW  Elec       q    Type
REMARK                         _______ _______ _______ _____ _____    ______ ____
ROOT
ATOM      1  C   UNL     1     112.956  76.559  84.308  0.00  0.00    +0.000 C 
ENDROOT
BRANCH   1   2
ATOM      2  P   UNL     1     111.784  75.324  84.979  0.00  0.00    +0.000 P 
ATOM      3  O   UNL     1     112.386  75.426  86.379  0.00  0.00    +0.000 OA
BRANCH   2   4
ATOM      4  O   UNL     1     110.561  76.419  85.048  0.00  0.00    +0.000 OA
ATOM      5  H   UNL     1     110.845  77.190  85.599  0.00  0.00    +0.000 HD
ENDBRANCH   2   4
BRANCH   2   6
ATOM      6  O   UNL     1     110.676  74.157  85.613  0.00  0.00    +0.000 OA
ATOM      7  H   UNL     1     110.918  73.317  85.170  0.00  0.00    +0.000 HD
ENDBRANCH   2   6
ENDBRANCH   1   2
BRANCH   1   8
ATOM      8  P   UNL     1     114.674  76.254  84.961  0.00  0.00    +0.000 P 
ATOM      9  O   UNL     1     115.812  76.666  84.074  0.00  0.00    +0.000 OA
BRANCH   8  10
ATOM     10  O   UNL     1     114.754  77.052  86.363  0.00  0.00    +0.000 OA
ATOM     11  H   UNL     1     114.837  78.015  86.212  0.00  0.00    +0.000 HD
ENDBRANCH   8  10
BRANCH   8  12
ATOM     12  O   UNL     1     114.875  74.762  85.505  0.00  0.00    +0.000 OA
ATOM     13  H   UNL     1     115.742  74.413  85.215  0.00  0.00    +0.000 HD
ENDBRANCH   8  12
ENDBRANCH   1   8
BRANCH   1  14
ATOM     14  S   UNL     1     113.378  76.019  82.504  0.00  0.00    +0.000 S 
BRANCH  14  15
ATOM     15  C   UNL     1     111.820  75.383  81.848  0.00  0.00    +0.000 C 
BRANCH  15  16
ATOM     16  C   UNL     1     112.014  74.225  80.868  0.00  0.00    +0.000 C 
BRANCH  16  18
ATOM     17  C   UNL     1     112.860  71.867  81.107  0.00  0.00    +0.000 C 
ATOM     18  C   UNL     1     112.766  73.122  81.546  0.00  0.00    +0.000 C 
BRANCH  17  20
ATOM     19  C   UNL     1     114.661  71.389  82.507  0.00  0.00    +0.000 C 
ATOM     20  O   UNL     1     113.484  70.909  81.866  0.00  0.00    +0.000 OA
ENDBRANCH  17  20
BRANCH  17  21
ATOM     21  O   UNL     1     112.226  71.504  79.936  0.00  0.00    +0.000 OA
ATOM     22  H   UNL     1     112.427  70.567  79.794  0.00  0.00    +0.000 HD
ENDBRANCH  17  21
ENDBRANCH  16  18
BRANCH  16  23
ATOM     23  O   UNL     1     110.761  73.745  80.389  0.00  0.00    +0.000 OA
ATOM     24  H   UNL     1     110.570  72.934  80.913  0.00  0.00    +0.000 HD
ENDBRANCH  16  23
ENDBRANCH  15  16
ENDBRANCH  14  15
ENDBRANCH   1  14
TORSDOF 13
ENDMDL
