MODEL 1
REMARK VINA RESULT:      -6.2      0.000      0.000
REMARK  Name = 
REMARK  20 active torsions:
REMARK  status: ('A' for Active; 'I' for Inactive)
REMARK    1  A    between atoms: C_1  and  C_2
REMARK    2  A    between atoms: C_2  and  C_3
REMARK    3  A    between atoms: C_7  and  O_8
REMARK    4  A    between atoms: C_7  and  C_20
REMARK    5  A    between atoms: O_8  and  C_9
REMARK    6  A    between atoms: C_9  and  C_11
REMARK    7  A    between atoms: C_11  and  O_12
REMARK    8  A    between atoms: O_12  and  C_13
REMARK    9  A    between atoms: C_18  and  O_19
REMARK   10  A    between atoms: C_20  and  O_22
REMARK   11  A    between atoms: O_22  and  C_23
REMARK   12  A    between atoms: C_28  and  N_29
REMARK   13  A    between atoms: C_30  and  C_32
REMARK   14  A    between atoms: C_32  and  N_33
REMARK   15  A    between atoms: C_32  and  C_34
REMARK   16  A    between atoms: C_34  and  C_35
REMARK   17  A    between atoms: C_35  and  O_36
REMARK   18  A    between atoms: O_36  and  C_37
REMARK   19  A    between atoms: C_37  and  C_38
REMARK   20  A    between atoms: C_38  and  O_39
REMARK                            x       y       z     vdW  Elec       q    Type
REMARK                         _______ _______ _______ _____ _____    ______ ____
ROOT
ATOM      1  C   UNL     1     113.043  75.417  80.375  0.00  0.00    +0.000 C 
ATOM      2  O   UNL     1     112.984  76.467  79.750  0.00  0.00    +0.000 OA
ENDROOT
BRANCH   1   7
ATOM      3  C   UNL     1     111.964  75.056  82.728  0.00  0.00    +0.000 C 
ATOM      4  C   UNL     1     112.474  74.436  84.036  0.00  0.00    +0.000 C 
ATOM      5  C   UNL     1     113.732  73.658  83.648  0.00  0.00    +0.000 C 
ATOM      6  C   UNL     1     113.987  73.964  82.168  0.00  0.00    +0.000 C 
ATOM      7  C   UNL     1     113.262  75.300  81.909  0.00  0.00    +0.000 C 
BRANCH   3   9
ATOM      8  C   UNL     1     110.436  76.298  84.334  0.00  0.00    +0.000 C 
ATOM      9  C   UNL     1     111.050  76.267  82.935  0.00  0.00    +0.000 C 
ENDBRANCH   3   9
BRANCH   7  10
ATOM     10  O   UNL     1     114.153  76.239  82.553  0.00  0.00    +0.000 OA
BRANCH  10  11
ATOM     11  C   UNL     1     115.281  76.710  81.976  0.00  0.00    +0.000 C 
ATOM     12  O   UNL     1     115.343  77.609  81.151  0.00  0.00    +0.000 OA
BRANCH  11  13
ATOM     13  C   UNL     1     116.498  75.984  82.572  0.00  0.00    +0.000 C 
BRANCH  13  14
ATOM     14  O   UNL     1     117.266  76.634  83.578  0.00  0.00    +0.000 OA
BRANCH  14  15
ATOM     15  C   UNL     1     116.660  76.734  84.879  0.00  0.00    +0.000 C 
ATOM     16  C   UNL     1     117.560  76.141  85.972  0.00  0.00    +0.000 C 
ATOM     17  C   UNL     1     117.025  76.402  87.375  0.00  0.00    +0.000 C 
ATOM     18  C   UNL     1     116.804  77.889  87.624  0.00  0.00    +0.000 C 
ATOM     19  C   UNL     1     115.876  78.484  86.577  0.00  0.00    +0.000 C 
ATOM     20  C   UNL     1     116.385  78.237  85.159  0.00  0.00    +0.000 C 
BRANCH  20  21
ATOM     21  O   UNL     1     115.419  78.775  84.246  0.00  0.00    +0.000 OA
ATOM     22  H   UNL     1     115.871  78.957  83.404  0.00  0.00    +0.000 HD
ENDBRANCH  20  21
ENDBRANCH  14  15
ENDBRANCH  13  14
ENDBRANCH  11  13
ENDBRANCH  10  11
ENDBRANCH   7  10
ENDBRANCH   1   7
BRANCH   1  23
ATOM     23  O   UNL     1     112.986  74.184  79.786  0.00  0.00    +0.000 OA
BRANCH  23  24
ATOM     24  C   UNL     1     111.931  73.974  78.817  0.00  0.00    +0.000 C 
ATOM     25  C   UNL     1     111.094  72.802  79.332  0.00  0.00    +0.000 C 
ATOM     26  C   UNL     1     110.106  72.319  78.290  0.00  0.00    +0.000 C 
ATOM     27  O   UNL     1     110.793  71.954  77.099  0.00  0.00    +0.000 OA
ATOM     28  C   UNL     1     111.468  73.059  76.504  0.00  0.00    +0.000 C 
ATOM     29  C   UNL     1     112.547  73.649  77.436  0.00  0.00    +0.000 C 
BRANCH  29  30
ATOM     30  N   UNL     1     113.156  74.833  76.806  0.00  0.00    +0.000 N 
ATOM     31  C   UNL     1     114.525  75.032  76.782  0.00  0.00    +0.000 C 
ATOM     32  O   UNL     1     115.315  74.307  77.400  0.00  0.00    +0.000 OA
ATOM     33  H   UNL     1     112.579  75.424  76.224  0.00  0.00    +0.000 HD
BRANCH  31  34
ATOM     34  C   UNL     1     115.007  76.167  75.868  0.00  0.00    +0.000 C 
BRANCH  34  35
ATOM     35  N   UNL     1     115.364  75.612  74.542  0.00  0.00    +0.000 NA
ATOM     36  H   UNL     1     115.805  76.361  73.997  0.00  0.00    +0.000 HD
ATOM     37  H   UNL     1     114.499  75.413  74.034  0.00  0.00    +0.000 HD
ENDBRANCH  34  35
BRANCH  34  38
ATOM     38  C   UNL     1     113.886  77.201  75.682  0.00  0.00    +0.000 C 
BRANCH  38  39
ATOM     39  C   UNL     1     113.558  77.461  74.212  0.00  0.00    +0.000 C 
BRANCH  39  40
ATOM     40  O   UNL     1     112.149  77.541  73.970  0.00  0.00    +0.000 OA
BRANCH  40  41
ATOM     41  C   UNL     1     111.523  76.245  73.970  0.00  0.00    +0.000 C 
BRANCH  41  42
ATOM     42  C   UNL     1     112.245  75.343  72.977  0.00  0.00    +0.000 C 
BRANCH  42  43
ATOM     43  O   UNL     1     112.691  74.157  73.629  0.00  0.00    +0.000 OA
ATOM     44  H   UNL     1     113.635  74.078  73.401  0.00  0.00    +0.000 HD
ENDBRANCH  42  43
ENDBRANCH  41  42
ENDBRANCH  40  41
ENDBRANCH  39  40
ENDBRANCH  38  39
ENDBRANCH  34  38
ENDBRANCH  31  34
ENDBRANCH  29  30
ENDBRANCH  23  24
ENDBRANCH   1  23
TORSDOF 19
ENDMDL
MODEL 2
REMARK VINA RESULT:      -6.1      1.341      1.951
REMARK  Name = 
REMARK  20 active torsions:
REMARK  status: ('A' for Active; 'I' for Inactive)
REMARK    1  A    between atoms: C_1  and  C_2
REMARK    2  A    between atoms: C_2  and  C_3
REMARK    3  A    between atoms: C_7  and  O_8
REMARK    4  A    between atoms: C_7  and  C_20
REMARK    5  A    between atoms: O_8  and  C_9
REMARK    6  A    between atoms: C_9  and  C_11
REMARK    7  A    between atoms: C_11  and  O_12
REMARK    8  A    between atoms: O_12  and  C_13
REMARK    9  A    between atoms: C_18  and  O_19
REMARK   10  A    between atoms: C_20  and  O_22
REMARK   11  A    between atoms: O_22  and  C_23
REMARK   12  A    between atoms: C_28  and  N_29
REMARK   13  A    between atoms: C_30  and  C_32
REMARK   14  A    between atoms: C_32  and  N_33
REMARK   15  A    between atoms: C_32  and  C_34
REMARK   16  A    between atoms: C_34  and  C_35
REMARK   17  A    between atoms: C_35  and  O_36
REMARK   18  A    between atoms: O_36  and  C_37
REMARK   19  A    between atoms: C_37  and  C_38
REMARK   20  A    between atoms: C_38  and  O_39
REMARK                            x       y       z     vdW  Elec       q    Type
REMARK                         _______ _______ _______ _____ _____    ______ ____
ROOT
ATOM      1  C   UNL     1     113.179  75.360  80.180  0.00  0.00    +0.000 C 
ATOM      2  O   UNL     1     112.985  76.419  79.598  0.00  0.00    +0.000 OA
ENDROOT
BRANCH   1   7
ATOM      3  C   UNL     1     112.015  74.978  82.489  0.00  0.00    +0.000 C 
ATOM      4  C   UNL     1     112.464  74.314  83.798  0.00  0.00    +0.000 C 
ATOM      5  C   UNL     1     113.712  73.508  83.432  0.00  0.00    +0.000 C 
ATOM      6  C   UNL     1     114.023  73.840  81.968  0.00  0.00    +0.000 C 
ATOM      7  C   UNL     1     113.345  75.202  81.718  0.00  0.00    +0.000 C 
BRANCH   3   9
ATOM      8  C   UNL     1     110.571  76.292  84.116  0.00  0.00    +0.000 C 
ATOM      9  C   UNL     1     111.130  76.211  82.696  0.00  0.00    +0.000 C 
ENDBRANCH   3   9
BRANCH   7  10
ATOM     10  O   UNL     1     114.241  76.100  82.411  0.00  0.00    +0.000 OA
BRANCH  10  11
ATOM     11  C   UNL     1     115.550  76.233  82.099  0.00  0.00    +0.000 C 
ATOM     12  O   UNL     1     116.024  76.206  80.973  0.00  0.00    +0.000 OA
BRANCH  11  13
ATOM     13  C   UNL     1     116.354  76.499  83.381  0.00  0.00    +0.000 C 
BRANCH  13  14
ATOM     14  O   UNL     1     115.819  77.379  84.363  0.00  0.00    +0.000 OA
BRANCH  14  15
ATOM     15  C   UNL     1     116.490  77.399  85.635  0.00  0.00    +0.000 C 
ATOM     16  C   UNL     1     116.951  78.814  86.012  0.00  0.00    +0.000 C 
ATOM     17  C   UNL     1     117.495  78.891  87.434  0.00  0.00    +0.000 C 
ATOM     18  C   UNL     1     116.484  78.380  88.452  0.00  0.00    +0.000 C 
ATOM     19  C   UNL     1     116.049  76.960  88.121  0.00  0.00    +0.000 C 
ATOM     20  C   UNL     1     115.500  76.849  86.700  0.00  0.00    +0.000 C 
BRANCH  20  21
ATOM     21  O   UNL     1     115.179  75.473  86.460  0.00  0.00    +0.000 OA
ATOM     22  H   UNL     1     115.775  74.927  86.999  0.00  0.00    +0.000 HD
ENDBRANCH  20  21
ENDBRANCH  14  15
ENDBRANCH  13  14
ENDBRANCH  11  13
ENDBRANCH  10  11
ENDBRANCH   7  10
ENDBRANCH   1   7
BRANCH   1  23
ATOM     23  O   UNL     1     113.342  74.163  79.538  0.00  0.00    +0.000 OA
BRANCH  23  24
ATOM     24  C   UNL     1     112.183  73.627  78.859  0.00  0.00    +0.000 C 
ATOM     25  C   UNL     1     111.877  72.280  79.519  0.00  0.00    +0.000 C 
ATOM     26  C   UNL     1     110.838  71.499  78.739  0.00  0.00    +0.000 C 
ATOM     27  O   UNL     1     111.275  71.308  77.399  0.00  0.00    +0.000 OA
ATOM     28  C   UNL     1     111.430  72.541  76.702  0.00  0.00    +0.000 C 
ATOM     29  C   UNL     1     112.493  73.448  77.355  0.00  0.00    +0.000 C 
BRANCH  29  30
ATOM     30  N   UNL     1     112.555  74.736  76.642  0.00  0.00    +0.000 N 
ATOM     31  C   UNL     1     113.753  75.296  76.237  0.00  0.00    +0.000 C 
ATOM     32  O   UNL     1     114.852  74.827  76.560  0.00  0.00    +0.000 OA
ATOM     33  H   UNL     1     111.698  75.135  76.286  0.00  0.00    +0.000 HD
BRANCH  31  34
ATOM     34  C   UNL     1     113.629  76.496  75.287  0.00  0.00    +0.000 C 
BRANCH  34  35
ATOM     35  N   UNL     1     114.953  77.139  75.133  0.00  0.00    +0.000 NA
ATOM     36  H   UNL     1     115.613  76.426  74.803  0.00  0.00    +0.000 HD
ATOM     37  H   UNL     1     115.300  77.387  76.063  0.00  0.00    +0.000 HD
ENDBRANCH  34  35
BRANCH  34  38
ATOM     38  C   UNL     1     113.151  76.021  73.906  0.00  0.00    +0.000 C 
BRANCH  38  39
ATOM     39  C   UNL     1     112.336  77.080  73.165  0.00  0.00    +0.000 C 
BRANCH  39  40
ATOM     40  O   UNL     1     112.529  78.395  73.700  0.00  0.00    +0.000 OA
BRANCH  40  41
ATOM     41  C   UNL     1     113.013  79.319  72.708  0.00  0.00    +0.000 C 
BRANCH  41  42
ATOM     42  C   UNL     1     114.081  80.206  73.333  0.00  0.00    +0.000 C 
BRANCH  42  43
ATOM     43  O   UNL     1     114.028  80.108  74.754  0.00  0.00    +0.000 OA
ATOM     44  H   UNL     1     113.335  79.449  74.939  0.00  0.00    +0.000 HD
ENDBRANCH  42  43
ENDBRANCH  41  42
ENDBRANCH  40  41
ENDBRANCH  39  40
ENDBRANCH  38  39
ENDBRANCH  34  38
ENDBRANCH  31  34
ENDBRANCH  29  30
ENDBRANCH  23  24
ENDBRANCH   1  23
TORSDOF 19
ENDMDL
MODEL 3
REMARK VINA RESULT:      -6.0      4.121      9.095
REMARK  Name = 
REMARK  20 active torsions:
REMARK  status: ('A' for Active; 'I' for Inactive)
REMARK    1  A    between atoms: C_1  and  C_2
REMARK    2  A    between atoms: C_2  and  C_3
REMARK    3  A    between atoms: C_7  and  O_8
REMARK    4  A    between atoms: C_7  and  C_20
REMARK    5  A    between atoms: O_8  and  C_9
REMARK    6  A    between atoms: C_9  and  C_11
REMARK    7  A    between atoms: C_11  and  O_12
REMARK    8  A    between atoms: O_12  and  C_13
REMARK    9  A    between atoms: C_18  and  O_19
REMARK   10  A    between atoms: C_20  and  O_22
REMARK   11  A    between atoms: O_22  and  C_23
REMARK   12  A    between atoms: C_28  and  N_29
REMARK   13  A    between atoms: C_30  and  C_32
REMARK   14  A    between atoms: C_32  and  N_33
REMARK   15  A    between atoms: C_32  and  C_34
REMARK   16  A    between atoms: C_34  and  C_35
REMARK   17  A    between atoms: C_35  and  O_36
REMARK   18  A    between atoms: O_36  and  C_37
REMARK   19  A    between atoms: C_37  and  C_38
REMARK   20  A    between atoms: C_38  and  O_39
REMARK                            x       y       z     vdW  Elec       q    Type
REMARK                         _______ _______ _______ _____ _____    ______ ____
ROOT
ATOM      1  C   UNL     1     113.935  76.013  84.935  0.00  0.00    +0.000 C 
ATOM      2  O   UNL     1     113.292  75.603  85.893  0.00  0.00    +0.000 OA
ENDROOT
BRANCH   1   7
ATOM      3  C   UNL     1     112.305  76.389  82.927  0.00  0.00    +0.000 C 
ATOM      4  C   UNL     1     112.501  76.430  81.405  0.00  0.00    +0.000 C 
ATOM      5  C   UNL     1     114.010  76.572  81.198  0.00  0.00    +0.000 C 
ATOM      6  C   UNL     1     114.646  76.469  82.589  0.00  0.00    +0.000 C 
ATOM      7  C   UNL     1     113.607  75.717  83.445  0.00  0.00    +0.000 C 
BRANCH   3   9
ATOM      8  C   UNL     1     110.346  76.473  84.543  0.00  0.00    +0.000 C 
ATOM      9  C   UNL     1     110.986  75.746  83.361  0.00  0.00    +0.000 C 
ENDBRANCH   3   9
BRANCH   7  10
ATOM     10  O   UNL     1     113.761  74.364  82.959  0.00  0.00    +0.000 OA
BRANCH  10  11
ATOM     11  C   UNL     1     114.779  73.553  83.326  0.00  0.00    +0.000 C 
ATOM     12  O   UNL     1     115.044  73.206  84.467  0.00  0.00    +0.000 OA
BRANCH  11  13
ATOM     13  C   UNL     1     115.520  73.069  82.069  0.00  0.00    +0.000 C 
BRANCH  13  14
ATOM     14  O   UNL     1     114.829  72.254  81.130  0.00  0.00    +0.000 OA
BRANCH  14  15
ATOM     15  C   UNL     1     113.653  72.827  80.532  0.00  0.00    +0.000 C 
ATOM     16  C   UNL     1     113.952  73.424  79.149  0.00  0.00    +0.000 C 
ATOM     17  C   UNL     1     112.689  73.868  78.419  0.00  0.00    +0.000 C 
ATOM     18  C   UNL     1     111.683  72.731  78.295  0.00  0.00    +0.000 C 
ATOM     19  C   UNL     1     111.339  72.157  79.661  0.00  0.00    +0.000 C 
ATOM     20  C   UNL     1     112.585  71.704  80.418  0.00  0.00    +0.000 C 
BRANCH  20  21
ATOM     21  O   UNL     1     112.170  71.240  81.710  0.00  0.00    +0.000 OA
ATOM     22  H   UNL     1     112.535  71.845  82.377  0.00  0.00    +0.000 HD
ENDBRANCH  20  21
ENDBRANCH  14  15
ENDBRANCH  13  14
ENDBRANCH  11  13
ENDBRANCH  10  11
ENDBRANCH   7  10
ENDBRANCH   1   7
BRANCH   1  23
ATOM     23  O   UNL     1     115.083  76.745  85.055  0.00  0.00    +0.000 OA
BRANCH  23  24
ATOM     24  C   UNL     1     115.664  76.833  86.377  0.00  0.00    +0.000 C 
ATOM     25  C   UNL     1     115.612  78.309  86.778  0.00  0.00    +0.000 C 
ATOM     26  C   UNL     1     116.413  78.575  88.037  0.00  0.00    +0.000 C 
ATOM     27  O   UNL     1     117.760  78.156  87.856  0.00  0.00    +0.000 OA
ATOM     28  C   UNL     1     117.864  76.754  87.625  0.00  0.00    +0.000 C 
ATOM     29  C   UNL     1     117.123  76.321  86.343  0.00  0.00    +0.000 C 
BRANCH  29  30
ATOM     30  N   UNL     1     117.195  74.856  86.197  0.00  0.00    +0.000 N 
ATOM     31  C   UNL     1     118.177  74.240  85.444  0.00  0.00    +0.000 C 
ATOM     32  O   UNL     1     118.973  74.873  84.738  0.00  0.00    +0.000 OA
ATOM     33  H   UNL     1     116.625  74.280  86.801  0.00  0.00    +0.000 HD
BRANCH  31  34
ATOM     34  C   UNL     1     118.270  72.715  85.606  0.00  0.00    +0.000 C 
BRANCH  34  35
ATOM     35  N   UNL     1     117.047  72.218  86.277  0.00  0.00    +0.000 NA
ATOM     36  H   UNL     1     116.240  72.497  85.707  0.00  0.00    +0.000 HD
ATOM     37  H   UNL     1     116.925  72.737  87.149  0.00  0.00    +0.000 HD
ENDBRANCH  34  35
BRANCH  34  38
ATOM     38  C   UNL     1     118.377  72.049  84.226  0.00  0.00    +0.000 C 
BRANCH  38  39
ATOM     39  C   UNL     1     118.054  70.556  84.262  0.00  0.00    +0.000 C 
BRANCH  39  40
ATOM     40  O   UNL     1     116.651  70.295  84.134  0.00  0.00    +0.000 OA
BRANCH  40  41
ATOM     41  C   UNL     1     116.391  69.041  83.477  0.00  0.00    +0.000 C 
BRANCH  41  42
ATOM     42  C   UNL     1     116.324  67.935  84.523  0.00  0.00    +0.000 C 
BRANCH  42  43
ATOM     43  O   UNL     1     115.842  66.732  83.931  0.00  0.00    +0.000 OA
ATOM     44  H   UNL     1     116.374  66.019  84.327  0.00  0.00    +0.000 HD
ENDBRANCH  42  43
ENDBRANCH  41  42
ENDBRANCH  40  41
ENDBRANCH  39  40
ENDBRANCH  38  39
ENDBRANCH  34  38
ENDBRANCH  31  34
ENDBRANCH  29  30
ENDBRANCH  23  24
ENDBRANCH   1  23
TORSDOF 19
ENDMDL
MODEL 4
REMARK VINA RESULT:      -6.0      2.300      3.841
REMARK  Name = 
REMARK  20 active torsions:
REMARK  status: ('A' for Active; 'I' for Inactive)
REMARK    1  A    between atoms: C_1  and  C_2
REMARK    2  A    between atoms: C_2  and  C_3
REMARK    3  A    between atoms: C_7  and  O_8
REMARK    4  A    between atoms: C_7  and  C_20
REMARK    5  A    between atoms: O_8  and  C_9
REMARK    6  A    between atoms: C_9  and  C_11
REMARK    7  A    between atoms: C_11  and  O_12
REMARK    8  A    between atoms: O_12  and  C_13
REMARK    9  A    between atoms: C_18  and  O_19
REMARK   10  A    between atoms: C_20  and  O_22
REMARK   11  A    between atoms: O_22  and  C_23
REMARK   12  A    between atoms: C_28  and  N_29
REMARK   13  A    between atoms: C_30  and  C_32
REMARK   14  A    between atoms: C_32  and  N_33
REMARK   15  A    between atoms: C_32  and  C_34
REMARK   16  A    between atoms: C_34  and  C_35
REMARK   17  A    between atoms: C_35  and  O_36
REMARK   18  A    between atoms: O_36  and  C_37
REMARK   19  A    between atoms: C_37  and  C_38
REMARK   20  A    between atoms: C_38  and  O_39
REMARK                            x       y       z     vdW  Elec       q    Type
REMARK                         _______ _______ _______ _____ _____    ______ ____
ROOT
ATOM      1  C   UNL     1     113.084  75.343  80.209  0.00  0.00    +0.000 C 
ATOM      2  O   UNL     1     112.983  76.483  79.777  0.00  0.00    +0.000 OA
ENDROOT
BRANCH   1   7
ATOM      3  C   UNL     1     112.047  74.944  82.575  0.00  0.00    +0.000 C 
ATOM      4  C   UNL     1     112.437  74.046  83.758  0.00  0.00    +0.000 C 
ATOM      5  C   UNL     1     113.439  73.042  83.186  0.00  0.00    +0.000 C 
ATOM      6  C   UNL     1     113.701  73.473  81.738  0.00  0.00    +0.000 C 
ATOM      7  C   UNL     1     113.330  74.969  81.697  0.00  0.00    +0.000 C 
BRANCH   3   9
ATOM      8  C   UNL     1     110.580  76.202  84.225  0.00  0.00    +0.000 C 
ATOM      9  C   UNL     1     111.481  76.303  82.995  0.00  0.00    +0.000 C 
ENDBRANCH   3   9
BRANCH   7  10
ATOM     10  O   UNL     1     114.456  75.563  82.382  0.00  0.00    +0.000 OA
BRANCH  10  11
ATOM     11  C   UNL     1     115.261  76.494  81.821  0.00  0.00    +0.000 C 
ATOM     12  O   UNL     1     115.106  77.704  81.880  0.00  0.00    +0.000 OA
BRANCH  11  13
ATOM     13  C   UNL     1     116.454  75.795  81.150  0.00  0.00    +0.000 C 
BRANCH  13  14
ATOM     14  O   UNL     1     116.496  75.710  79.730  0.00  0.00    +0.000 OA
BRANCH  14  15
ATOM     15  C   UNL     1     117.082  76.829  79.041  0.00  0.00    +0.000 C 
ATOM     16  C   UNL     1     118.529  76.541  78.618  0.00  0.00    +0.000 C 
ATOM     17  C   UNL     1     119.106  77.635  77.727  0.00  0.00    +0.000 C 
ATOM     18  C   UNL     1     118.237  77.874  76.498  0.00  0.00    +0.000 C 
ATOM     19  C   UNL     1     116.807  78.207  76.899  0.00  0.00    +0.000 C 
ATOM     20  C   UNL     1     116.202  77.130  77.796  0.00  0.00    +0.000 C 
BRANCH  20  21
ATOM     21  O   UNL     1     114.887  77.558  78.171  0.00  0.00    +0.000 OA
ATOM     22  H   UNL     1     114.888  77.728  79.128  0.00  0.00    +0.000 HD
ENDBRANCH  20  21
ENDBRANCH  14  15
ENDBRANCH  13  14
ENDBRANCH  11  13
ENDBRANCH  10  11
ENDBRANCH   7  10
ENDBRANCH   1   7
BRANCH   1  23
ATOM     23  O   UNL     1     113.055  74.229  79.416  0.00  0.00    +0.000 OA
BRANCH  23  24
ATOM     24  C   UNL     1     111.822  73.970  78.703  0.00  0.00    +0.000 C 
ATOM     25  C   UNL     1     111.069  72.910  79.509  0.00  0.00    +0.000 C 
ATOM     26  C   UNL     1     109.878  72.368  78.745  0.00  0.00    +0.000 C 
ATOM     27  O   UNL     1     110.302  71.835  77.496  0.00  0.00    +0.000 OA
ATOM     28  C   UNL     1     110.878  72.828  76.652  0.00  0.00    +0.000 C 
ATOM     29  C   UNL     1     112.139  73.460  77.278  0.00  0.00    +0.000 C 
BRANCH  29  30
ATOM     30  N   UNL     1     112.646  74.532  76.403  0.00  0.00    +0.000 N 
ATOM     31  C   UNL     1     113.984  74.639  76.072  0.00  0.00    +0.000 C 
ATOM     32  O   UNL     1     114.859  73.934  76.591  0.00  0.00    +0.000 OA
ATOM     33  H   UNL     1     111.982  75.095  75.891  0.00  0.00    +0.000 HD
BRANCH  31  34
ATOM     34  C   UNL     1     114.306  75.641  74.953  0.00  0.00    +0.000 C 
BRANCH  34  35
ATOM     35  N   UNL     1     114.125  74.984  73.639  0.00  0.00    +0.000 NA
ATOM     36  H   UNL     1     113.586  75.621  73.041  0.00  0.00    +0.000 HD
ATOM     37  H   UNL     1     113.506  74.179  73.764  0.00  0.00    +0.000 HD
ENDBRANCH  34  35
BRANCH  34  38
ATOM     38  C   UNL     1     113.350  76.841  75.037  0.00  0.00    +0.000 C 
BRANCH  38  39
ATOM     39  C   UNL     1     113.720  77.962  74.066  0.00  0.00    +0.000 C 
BRANCH  39  40
ATOM     40  O   UNL     1     112.574  78.675  73.589  0.00  0.00    +0.000 OA
BRANCH  40  41
ATOM     41  C   UNL     1     112.695  79.032  72.200  0.00  0.00    +0.000 C 
BRANCH  41  42
ATOM     42  C   UNL     1     113.003  77.780  71.389  0.00  0.00    +0.000 C 
BRANCH  42  43
ATOM     43  O   UNL     1     111.811  77.288  70.780  0.00  0.00    +0.000 OA
ATOM     44  H   UNL     1     111.368  76.764  71.471  0.00  0.00    +0.000 HD
ENDBRANCH  42  43
ENDBRANCH  41  42
ENDBRANCH  40  41
ENDBRANCH  39  40
ENDBRANCH  38  39
ENDBRANCH  34  38
ENDBRANCH  31  34
ENDBRANCH  29  30
ENDBRANCH  23  24
ENDBRANCH   1  23
TORSDOF 19
ENDMDL
MODEL 5
REMARK VINA RESULT:      -5.9      2.834      7.303
REMARK  Name = 
REMARK  20 active torsions:
REMARK  status: ('A' for Active; 'I' for Inactive)
REMARK    1  A    between atoms: C_1  and  C_2
REMARK    2  A    between atoms: C_2  and  C_3
REMARK    3  A    between atoms: C_7  and  O_8
REMARK    4  A    between atoms: C_7  and  C_20
REMARK    5  A    between atoms: O_8  and  C_9
REMARK    6  A    between atoms: C_9  and  C_11
REMARK    7  A    between atoms: C_11  and  O_12
REMARK    8  A    between atoms: O_12  and  C_13
REMARK    9  A    between atoms: C_18  and  O_19
REMARK   10  A    between atoms: C_20  and  O_22
REMARK   11  A    between atoms: O_22  and  C_23
REMARK   12  A    between atoms: C_28  and  N_29
REMARK   13  A    between atoms: C_30  and  C_32
REMARK   14  A    between atoms: C_32  and  N_33
REMARK   15  A    between atoms: C_32  and  C_34
REMARK   16  A    between atoms: C_34  and  C_35
REMARK   17  A    between atoms: C_35  and  O_36
REMARK   18  A    between atoms: O_36  and  C_37
REMARK   19  A    between atoms: C_37  and  C_38
REMARK   20  A    between atoms: C_38  and  O_39
REMARK                            x       y       z     vdW  Elec       q    Type
REMARK                         _______ _______ _______ _____ _____    ______ ____
ROOT
ATOM      1  C   UNL     1     111.893  74.457  80.362  0.00  0.00    +0.000 C 
ATOM      2  O   UNL     1     110.928  73.714  80.486  0.00  0.00    +0.000 OA
ENDROOT
BRANCH   1   7
ATOM      3  C   UNL     1     112.399  74.159  77.815  0.00  0.00    +0.000 C 
ATOM      4  C   UNL     1     113.543  74.631  76.907  0.00  0.00    +0.000 C 
ATOM      5  C   UNL     1     114.271  75.713  77.706  0.00  0.00    +0.000 C 
ATOM      6  C   UNL     1     113.617  75.736  79.093  0.00  0.00    +0.000 C 
ATOM      7  C   UNL     1     112.972  74.344  79.249  0.00  0.00    +0.000 C 
BRANCH   3   9
ATOM      8  C   UNL     1     110.420  72.797  76.987  0.00  0.00    +0.000 C 
ATOM      9  C   UNL     1     111.871  72.765  77.466  0.00  0.00    +0.000 C 
ENDBRANCH   3   9
BRANCH   7  10
ATOM     10  O   UNL     1     114.131  73.515  79.491  0.00  0.00    +0.000 OA
BRANCH  10  11
ATOM     11  C   UNL     1     114.059  72.186  79.731  0.00  0.00    +0.000 C 
ATOM     12  O   UNL     1     114.252  71.299  78.913  0.00  0.00    +0.000 OA
BRANCH  11  13
ATOM     13  C   UNL     1     113.764  71.954  81.222  0.00  0.00    +0.000 C 
BRANCH  13  14
ATOM     14  O   UNL     1     114.725  72.364  82.188  0.00  0.00    +0.000 OA
BRANCH  14  15
ATOM     15  C   UNL     1     115.074  71.393  83.191  0.00  0.00    +0.000 C 
ATOM     16  C   UNL     1     115.630  70.106  82.567  0.00  0.00    +0.000 C 
ATOM     17  C   UNL     1     116.179  69.140  83.610  0.00  0.00    +0.000 C 
ATOM     18  C   UNL     1     117.238  69.800  84.484  0.00  0.00    +0.000 C 
ATOM     19  C   UNL     1     116.690  71.054  85.150  0.00  0.00    +0.000 C 
ATOM     20  C   UNL     1     116.131  72.041  84.129  0.00  0.00    +0.000 C 
BRANCH  20  21
ATOM     21  O   UNL     1     115.584  73.154  84.848  0.00  0.00    +0.000 OA
ATOM     22  H   UNL     1     115.428  73.874  84.214  0.00  0.00    +0.000 HD
ENDBRANCH  20  21
ENDBRANCH  14  15
ENDBRANCH  13  14
ENDBRANCH  11  13
ENDBRANCH  10  11
ENDBRANCH   7  10
ENDBRANCH   1   7
BRANCH   1  23
ATOM     23  O   UNL     1     112.189  75.463  81.239  0.00  0.00    +0.000 OA
BRANCH  23  24
ATOM     24  C   UNL     1     112.357  75.089  82.627  0.00  0.00    +0.000 C 
ATOM     25  C   UNL     1     111.058  75.468  83.340  0.00  0.00    +0.000 C 
ATOM     26  C   UNL     1     111.194  75.357  84.845  0.00  0.00    +0.000 C 
ATOM     27  O   UNL     1     112.267  76.172  85.300  0.00  0.00    +0.000 OA
ATOM     28  C   UNL     1     113.523  75.755  84.771  0.00  0.00    +0.000 C 
ATOM     29  C   UNL     1     113.562  75.846  83.231  0.00  0.00    +0.000 C 
BRANCH  29  30
ATOM     30  N   UNL     1     114.850  75.330  82.735  0.00  0.00    +0.000 N 
ATOM     31  C   UNL     1     115.749  76.131  82.054  0.00  0.00    +0.000 C 
ATOM     32  O   UNL     1     115.480  77.285  81.699  0.00  0.00    +0.000 OA
ATOM     33  H   UNL     1     115.163  74.423  83.050  0.00  0.00    +0.000 HD
BRANCH  31  34
ATOM     34  C   UNL     1     117.140  75.518  81.838  0.00  0.00    +0.000 C 
BRANCH  34  35
ATOM     35  N   UNL     1     117.995  76.484  81.112  0.00  0.00    +0.000 NA
ATOM     36  H   UNL     1     118.637  75.949  80.515  0.00  0.00    +0.000 HD
ATOM     37  H   UNL     1     118.610  76.941  81.789  0.00  0.00    +0.000 HD
ENDBRANCH  34  35
BRANCH  34  38
ATOM     38  C   UNL     1     117.792  75.209  83.194  0.00  0.00    +0.000 C 
BRANCH  38  39
ATOM     39  C   UNL     1     117.921  76.444  84.085  0.00  0.00    +0.000 C 
BRANCH  39  40
ATOM     40  O   UNL     1     116.930  76.482  85.118  0.00  0.00    +0.000 OA
BRANCH  40  41
ATOM     41  C   UNL     1     116.856  77.772  85.753  0.00  0.00    +0.000 C 
BRANCH  41  42
ATOM     42  C   UNL     1     115.518  78.417  85.415  0.00  0.00    +0.000 C 
BRANCH  42  43
ATOM     43  O   UNL     1     115.566  78.985  84.109  0.00  0.00    +0.000 OA
ATOM     44  H   UNL     1     116.371  79.533  84.097  0.00  0.00    +0.000 HD
ENDBRANCH  42  43
ENDBRANCH  41  42
ENDBRANCH  40  41
ENDBRANCH  39  40
ENDBRANCH  38  39
ENDBRANCH  34  38
ENDBRANCH  31  34
ENDBRANCH  29  30
ENDBRANCH  23  24
ENDBRANCH   1  23
TORSDOF 19
ENDMDL
MODEL 6
REMARK VINA RESULT:      -5.8      3.623      9.803
REMARK  Name = 
REMARK  20 active torsions:
REMARK  status: ('A' for Active; 'I' for Inactive)
REMARK    1  A    between atoms: C_1  and  C_2
REMARK    2  A    between atoms: C_2  and  C_3
REMARK    3  A    between atoms: C_7  and  O_8
REMARK    4  A    between atoms: C_7  and  C_20
REMARK    5  A    between atoms: O_8  and  C_9
REMARK    6  A    between atoms: C_9  and  C_11
REMARK    7  A    between atoms: C_11  and  O_12
REMARK    8  A    between atoms: O_12  and  C_13
REMARK    9  A    between atoms: C_18  and  O_19
REMARK   10  A    between atoms: C_20  and  O_22
REMARK   11  A    between atoms: O_22  and  C_23
REMARK   12  A    between atoms: C_28  and  N_29
REMARK   13  A    between atoms: C_30  and  C_32
REMARK   14  A    between atoms: C_32  and  N_33
REMARK   15  A    between atoms: C_32  and  C_34
REMARK   16  A    between atoms: C_34  and  C_35
REMARK   17  A    between atoms: C_35  and  O_36
REMARK   18  A    between atoms: O_36  and  C_37
REMARK   19  A    between atoms: C_37  and  C_38
REMARK   20  A    between atoms: C_38  and  O_39
REMARK                            x       y       z     vdW  Elec       q    Type
REMARK                         _______ _______ _______ _____ _____    ______ ____
ROOT
ATOM      1  C   UNL     1     114.563  76.510  75.000  0.00  0.00    +0.000 C 
ATOM      2  O   UNL     1     115.636  76.108  75.430  0.00  0.00    +0.000 OA
ENDROOT
BRANCH   1   7
ATOM      3  C   UNL     1     114.508  76.826  72.406  0.00  0.00    +0.000 C 
ATOM      4  C   UNL     1     113.770  77.804  71.479  0.00  0.00    +0.000 C 
ATOM      5  C   UNL     1     112.679  78.433  72.347  0.00  0.00    +0.000 C 
ATOM      6  C   UNL     1     112.905  77.910  73.770  0.00  0.00    +0.000 C 
ATOM      7  C   UNL     1     114.389  77.490  73.806  0.00  0.00    +0.000 C 
BRANCH   3   9
ATOM      8  C   UNL     1     116.181  74.971  71.940  0.00  0.00    +0.000 C 
ATOM      9  C   UNL     1     115.921  76.477  71.933  0.00  0.00    +0.000 C 
ENDBRANCH   3   9
BRANCH   7  10
ATOM     10  O   UNL     1     115.049  78.775  73.865  0.00  0.00    +0.000 OA
BRANCH  10  11
ATOM     11  C   UNL     1     114.931  79.625  74.910  0.00  0.00    +0.000 C 
ATOM     12  O   UNL     1     114.988  79.320  76.092  0.00  0.00    +0.000 OA
BRANCH  11  13
ATOM     13  C   UNL     1     114.784  81.061  74.383  0.00  0.00    +0.000 C 
BRANCH  13  14
ATOM     14  O   UNL     1     114.470  81.264  73.010  0.00  0.00    +0.000 OA
BRANCH  14  15
ATOM     15  C   UNL     1     114.206  82.621  72.611  0.00  0.00    +0.000 C 
ATOM     16  C   UNL     1     115.504  83.405  72.369  0.00  0.00    +0.000 C 
ATOM     17  C   UNL     1     115.251  84.782  71.767  0.00  0.00    +0.000 C 
ATOM     18  C   UNL     1     114.443  84.692  70.478  0.00  0.00    +0.000 C 
ATOM     19  C   UNL     1     113.130  83.959  70.709  0.00  0.00    +0.000 C 
ATOM     20  C   UNL     1     113.351  82.575  71.314  0.00  0.00    +0.000 C 
BRANCH  20  21
ATOM     21  O   UNL     1     112.064  81.990  71.552  0.00  0.00    +0.000 OA
ATOM     22  H   UNL     1     112.069  81.608  72.447  0.00  0.00    +0.000 HD
ENDBRANCH  20  21
ENDBRANCH  14  15
ENDBRANCH  13  14
ENDBRANCH  11  13
ENDBRANCH  10  11
ENDBRANCH   7  10
ENDBRANCH   1   7
BRANCH   1  23
ATOM     23  O   UNL     1     113.357  76.195  75.562  0.00  0.00    +0.000 OA
BRANCH  23  24
ATOM     24  C   UNL     1     113.248  74.889  76.177  0.00  0.00    +0.000 C 
ATOM     25  C   UNL     1     112.012  74.223  75.569  0.00  0.00    +0.000 C 
ATOM     26  C   UNL     1     111.642  72.952  76.305  0.00  0.00    +0.000 C 
ATOM     27  O   UNL     1     111.429  73.231  77.683  0.00  0.00    +0.000 OA
ATOM     28  C   UNL     1     112.605  73.717  78.325  0.00  0.00    +0.000 C 
ATOM     29  C   UNL     1     113.096  75.043  77.708  0.00  0.00    +0.000 C 
BRANCH  29  30
ATOM     30  N   UNL     1     114.355  75.456  78.354  0.00  0.00    +0.000 N 
ATOM     31  C   UNL     1     114.444  76.599  79.127  0.00  0.00    +0.000 C 
ATOM     32  O   UNL     1     113.520  77.418  79.217  0.00  0.00    +0.000 OA
ATOM     33  H   UNL     1     115.124  74.801  78.381  0.00  0.00    +0.000 HD
BRANCH  31  34
ATOM     34  C   UNL     1     115.742  76.746  79.934  0.00  0.00    +0.000 C 
BRANCH  34  35
ATOM     35  N   UNL     1     116.386  78.036  79.599  0.00  0.00    +0.000 NA
ATOM     36  H   UNL     1     117.139  78.197  80.278  0.00  0.00    +0.000 HD
ATOM     37  H   UNL     1     115.718  78.788  79.786  0.00  0.00    +0.000 HD
ENDBRANCH  34  35
BRANCH  34  38
ATOM     38  C   UNL     1     115.425  76.733  81.438  0.00  0.00    +0.000 C 
BRANCH  38  39
ATOM     39  C   UNL     1     115.201  75.323  81.983  0.00  0.00    +0.000 C 
BRANCH  39  40
ATOM     40  O   UNL     1     113.824  75.064  82.284  0.00  0.00    +0.000 OA
BRANCH  40  41
ATOM     41  C   UNL     1     113.163  76.217  82.836  0.00  0.00    +0.000 C 
BRANCH  41  42
ATOM     42  C   UNL     1     111.677  76.141  82.513  0.00  0.00    +0.000 C 
BRANCH  42  43
ATOM     43  O   UNL     1     111.426  75.059  81.619  0.00  0.00    +0.000 OA
ATOM     44  H   UNL     1     112.213  75.011  81.047  0.00  0.00    +0.000 HD
ENDBRANCH  42  43
ENDBRANCH  41  42
ENDBRANCH  40  41
ENDBRANCH  39  40
ENDBRANCH  38  39
ENDBRANCH  34  38
ENDBRANCH  31  34
ENDBRANCH  29  30
ENDBRANCH  23  24
ENDBRANCH   1  23
TORSDOF 19
ENDMDL
MODEL 7
REMARK VINA RESULT:      -5.8     27.042     29.070
REMARK  Name = 
REMARK  20 active torsions:
REMARK  status: ('A' for Active; 'I' for Inactive)
REMARK    1  A    between atoms: C_1  and  C_2
REMARK    2  A    between atoms: C_2  and  C_3
REMARK    3  A    between atoms: C_7  and  O_8
REMARK    4  A    between atoms: C_7  and  C_20
REMARK    5  A    between atoms: O_8  and  C_9
REMARK    6  A    between atoms: C_9  and  C_11
REMARK    7  A    between atoms: C_11  and  O_12
REMARK    8  A    between atoms: O_12  and  C_13
REMARK    9  A    between atoms: C_18  and  O_19
REMARK   10  A    between atoms: C_20  and  O_22
REMARK   11  A    between atoms: O_22  and  C_23
REMARK   12  A    between atoms: C_28  and  N_29
REMARK   13  A    between atoms: C_30  and  C_32
REMARK   14  A    between atoms: C_32  and  N_33
REMARK   15  A    between atoms: C_32  and  C_34
REMARK   16  A    between atoms: C_34  and  C_35
REMARK   17  A    between atoms: C_35  and  O_36
REMARK   18  A    between atoms: O_36  and  C_37
REMARK   19  A    between atoms: C_37  and  C_38
REMARK   20  A    between atoms: C_38  and  O_39
REMARK                            x       y       z     vdW  Elec       q    Type
REMARK                         _______ _______ _______ _____ _____    ______ ____
ROOT
ATOM      1  C   UNL     1     101.830 102.997  80.681  0.00  0.00    +0.000 C 
ATOM      2  O   UNL     1     102.166 101.820  80.700  0.00  0.00    +0.000 OA
ENDROOT
BRANCH   1   7
ATOM      3  C   UNL     1     102.245 105.573  80.834  0.00  0.00    +0.000 C 
ATOM      4  C   UNL     1     102.663 106.506  81.980  0.00  0.00    +0.000 C 
ATOM      5  C   UNL     1     102.458 105.690  83.257  0.00  0.00    +0.000 C 
ATOM      6  C   UNL     1     102.065 104.278  82.807  0.00  0.00    +0.000 C 
ATOM      7  C   UNL     1     102.603 104.158  81.367  0.00  0.00    +0.000 C 
BRANCH   3   9
ATOM      8  C   UNL     1     103.128 107.459  79.377  0.00  0.00    +0.000 C 
ATOM      9  C   UNL     1     102.836 105.962  79.477  0.00  0.00    +0.000 C 
ENDBRANCH   3   9
BRANCH   7  10
ATOM     10  O   UNL     1     104.021 104.000  81.603  0.00  0.00    +0.000 OA
BRANCH  10  11
ATOM     11  C   UNL     1     104.821 103.225  80.835  0.00  0.00    +0.000 C 
ATOM     12  O   UNL     1     105.137 103.450  79.676  0.00  0.00    +0.000 OA
BRANCH  11  13
ATOM     13  C   UNL     1     105.337 102.043  81.670  0.00  0.00    +0.000 C 
BRANCH  13  14
ATOM     14  O   UNL     1     105.204 100.723  81.156  0.00  0.00    +0.000 OA
BRANCH  14  15
ATOM     15  C   UNL     1     106.425  99.984  80.973  0.00  0.00    +0.000 C 
ATOM     16  C   UNL     1     106.385  98.632  81.699  0.00  0.00    +0.000 C 
ATOM     17  C   UNL     1     107.587  97.756  81.367  0.00  0.00    +0.000 C 
ATOM     18  C   UNL     1     107.729  97.542  79.865  0.00  0.00    +0.000 C 
ATOM     19  C   UNL     1     107.817  98.872  79.132  0.00  0.00    +0.000 C 
ATOM     20  C   UNL     1     106.627  99.775  79.446  0.00  0.00    +0.000 C 
BRANCH  20  21
ATOM     21  O   UNL     1     106.828 101.020  78.766  0.00  0.00    +0.000 OA
ATOM     22  H   UNL     1     105.994 101.518  78.799  0.00  0.00    +0.000 HD
ENDBRANCH  20  21
ENDBRANCH  14  15
ENDBRANCH  13  14
ENDBRANCH  11  13
ENDBRANCH  10  11
ENDBRANCH   7  10
ENDBRANCH   1   7
BRANCH   1  23
ATOM     23  O   UNL     1     100.678 103.445  80.097  0.00  0.00    +0.000 OA
BRANCH  23  24
ATOM     24  C   UNL     1     100.408 102.984  78.752  0.00  0.00    +0.000 C 
ATOM     25  C   UNL     1     100.056 104.225  77.929  0.00  0.00    +0.000 C 
ATOM     26  C   UNL     1      99.511 103.855  76.565  0.00  0.00    +0.000 C 
ATOM     27  O   UNL     1      98.374 103.013  76.705  0.00  0.00    +0.000 OA
ATOM     28  C   UNL     1      98.692 101.776  77.339  0.00  0.00    +0.000 C 
ATOM     29  C   UNL     1      99.232 101.980  78.769  0.00  0.00    +0.000 C 
BRANCH  29  30
ATOM     30  N   UNL     1      99.619 100.680  79.345  0.00  0.00    +0.000 N 
ATOM     31  C   UNL     1      99.162 100.258  80.581  0.00  0.00    +0.000 C 
ATOM     32  O   UNL     1      98.516 100.992  81.340  0.00  0.00    +0.000 OA
ATOM     33  H   UNL     1     100.083 100.005  78.753  0.00  0.00    +0.000 HD
BRANCH  31  34
ATOM     34  C   UNL     1      99.442  98.786  80.917  0.00  0.00    +0.000 C 
BRANCH  34  35
ATOM     35  N   UNL     1     100.769  98.405  80.385  0.00  0.00    +0.000 NA
ATOM     36  H   UNL     1     100.701  97.445  80.027  0.00  0.00    +0.000 HD
ATOM     37  H   UNL     1     101.421  98.331  81.169  0.00  0.00    +0.000 HD
ENDBRANCH  34  35
BRANCH  34  38
ATOM     38  C   UNL     1      99.449  98.590  82.440  0.00  0.00    +0.000 C 
BRANCH  38  39
ATOM     39  C   UNL     1     100.112  97.280  82.866  0.00  0.00    +0.000 C 
BRANCH  39  40
ATOM     40  O   UNL     1     101.444  97.473  83.356  0.00  0.00    +0.000 OA
BRANCH  40  41
ATOM     41  C   UNL     1     101.612  98.760  83.980  0.00  0.00    +0.000 C 
BRANCH  41  42
ATOM     42  C   UNL     1     102.900  99.394  83.473  0.00  0.00    +0.000 C 
BRANCH  42  43
ATOM     43  O   UNL     1     102.928  99.371  82.048  0.00  0.00    +0.000 OA
ATOM     44  H   UNL     1     102.679  98.463  81.801  0.00  0.00    +0.000 HD
ENDBRANCH  42  43
ENDBRANCH  41  42
ENDBRANCH  40  41
ENDBRANCH  39  40
ENDBRANCH  38  39
ENDBRANCH  34  38
ENDBRANCH  31  34
ENDBRANCH  29  30
ENDBRANCH  23  24
ENDBRANCH   1  23
TORSDOF 19
ENDMDL
MODEL 8
REMARK VINA RESULT:      -5.8     28.036     30.113
REMARK  Name = 
REMARK  20 active torsions:
REMARK  status: ('A' for Active; 'I' for Inactive)
REMARK    1  A    between atoms: C_1  and  C_2
REMARK    2  A    between atoms: C_2  and  C_3
REMARK    3  A    between atoms: C_7  and  O_8
REMARK    4  A    between atoms: C_7  and  C_20
REMARK    5  A    between atoms: O_8  and  C_9
REMARK    6  A    between atoms: C_9  and  C_11
REMARK    7  A    between atoms: C_11  and  O_12
REMARK    8  A    between atoms: O_12  and  C_13
REMARK    9  A    between atoms: C_18  and  O_19
REMARK   10  A    between atoms: C_20  and  O_22
REMARK   11  A    between atoms: O_22  and  C_23
REMARK   12  A    between atoms: C_28  and  N_29
REMARK   13  A    between atoms: C_30  and  C_32
REMARK   14  A    between atoms: C_32  and  N_33
REMARK   15  A    between atoms: C_32  and  C_34
REMARK   16  A    between atoms: C_34  and  C_35
REMARK   17  A    between atoms: C_35  and  O_36
REMARK   18  A    between atoms: O_36  and  C_37
REMARK   19  A    between atoms: C_37  and  C_38
REMARK   20  A    between atoms: C_38  and  O_39
REMARK                            x       y       z     vdW  Elec       q    Type
REMARK                         _______ _______ _______ _____ _____    ______ ____
ROOT
ATOM      1  C   UNL     1     102.070 103.638  80.233  0.00  0.00    +0.000 C 
ATOM      2  O   UNL     1     102.194 102.532  80.742  0.00  0.00    +0.000 OA
ENDROOT
BRANCH   1   7
ATOM      3  C   UNL     1     104.378 104.553  79.414  0.00  0.00    +0.000 C 
ATOM      4  C   UNL     1     104.939 105.968  79.217  0.00  0.00    +0.000 C 
ATOM      5  C   UNL     1     103.721 106.891  79.245  0.00  0.00    +0.000 C 
ATOM      6  C   UNL     1     102.518 106.006  79.593  0.00  0.00    +0.000 C 
ATOM      7  C   UNL     1     103.123 104.779  80.304  0.00  0.00    +0.000 C 
BRANCH   3   9
ATOM      8  C   UNL     1     106.714 104.220  80.355  0.00  0.00    +0.000 C 
ATOM      9  C   UNL     1     105.410 103.547  79.931  0.00  0.00    +0.000 C 
ENDBRANCH   3   9
BRANCH   7  10
ATOM     10  O   UNL     1     103.457 105.331  81.597  0.00  0.00    +0.000 OA
BRANCH  10  11
ATOM     11  C   UNL     1     102.532 105.789  82.472  0.00  0.00    +0.000 C 
ATOM     12  O   UNL     1     101.967 106.871  82.417  0.00  0.00    +0.000 OA
BRANCH  11  13
ATOM     13  C   UNL     1     102.241 104.701  83.518  0.00  0.00    +0.000 C 
BRANCH  13  14
ATOM     14  O   UNL     1     100.893 104.314  83.756  0.00  0.00    +0.000 OA
BRANCH  14  15
ATOM     15  C   UNL     1     100.646 102.901  83.870  0.00  0.00    +0.000 C 
ATOM     16  C   UNL     1     101.528 102.256  84.948  0.00  0.00    +0.000 C 
ATOM     17  C   UNL     1     101.154 100.803  85.216  0.00  0.00    +0.000 C 
ATOM     18  C   UNL     1      99.683 100.661  85.587  0.00  0.00    +0.000 C 
ATOM     19  C   UNL     1      98.790 101.254  84.508  0.00  0.00    +0.000 C 
ATOM     20  C   UNL     1      99.142 102.710  84.215  0.00  0.00    +0.000 C 
BRANCH  20  21
ATOM     21  O   UNL     1      98.297 103.161  83.149  0.00  0.00    +0.000 OA
ATOM     22  H   UNL     1      97.534 102.561  83.097  0.00  0.00    +0.000 HD
ENDBRANCH  20  21
ENDBRANCH  14  15
ENDBRANCH  13  14
ENDBRANCH  11  13
ENDBRANCH  10  11
ENDBRANCH   7  10
ENDBRANCH   1   7
BRANCH   1  23
ATOM     23  O   UNL     1     100.942 104.044  79.576  0.00  0.00    +0.000 OA
BRANCH  23  24
ATOM     24  C   UNL     1     100.564 103.287  78.402  0.00  0.00    +0.000 C 
ATOM     25  C   UNL     1     100.001 104.294  77.397  0.00  0.00    +0.000 C 
ATOM     26  C   UNL     1      99.340 103.602  76.223  0.00  0.00    +0.000 C 
ATOM     27  O   UNL     1      98.313 102.733  76.683  0.00  0.00    +0.000 OA
ATOM     28  C   UNL     1      98.820 101.687  77.508  0.00  0.00    +0.000 C 
ATOM     29  C   UNL     1      99.500 102.231  78.782  0.00  0.00    +0.000 C 
BRANCH  29  30
ATOM     30  N   UNL     1     100.073 101.115  79.555  0.00  0.00    +0.000 N 
ATOM     31  C   UNL     1      99.403 100.535  80.617  0.00  0.00    +0.000 C 
ATOM     32  O   UNL     1      98.349 100.996  81.072  0.00  0.00    +0.000 OA
ATOM     33  H   UNL     1     100.893 100.646  79.195  0.00  0.00    +0.000 HD
BRANCH  31  34
ATOM     34  C   UNL     1     100.014  99.229  81.143  0.00  0.00    +0.000 C 
BRANCH  34  35
ATOM     35  N   UNL     1     101.251  99.534  81.897  0.00  0.00    +0.000 NA
ATOM     36  H   UNL     1     100.977  99.940  82.799  0.00  0.00    +0.000 HD
ATOM     37  H   UNL     1     101.739 100.295  81.420  0.00  0.00    +0.000 HD
ENDBRANCH  34  35
BRANCH  34  38
ATOM     38  C   UNL     1      99.023  98.533  82.089  0.00  0.00    +0.000 C 
BRANCH  38  39
ATOM     39  C   UNL     1      99.443  97.107  82.442  0.00  0.00    +0.000 C 
BRANCH  39  40
ATOM     40  O   UNL     1     100.424  96.584  81.539  0.00  0.00    +0.000 OA
BRANCH  40  41
ATOM     41  C   UNL     1     101.515  95.948  82.231  0.00  0.00    +0.000 C 
BRANCH  41  42
ATOM     42  C   UNL     1     102.811  96.229  81.481  0.00  0.00    +0.000 C 
BRANCH  42  43
ATOM     43  O   UNL     1     102.571  97.150  80.420  0.00  0.00    +0.000 OA
ATOM     44  H   UNL     1     102.528  98.026  80.844  0.00  0.00    +0.000 HD
ENDBRANCH  42  43
ENDBRANCH  41  42
ENDBRANCH  40  41
ENDBRANCH  39  40
ENDBRANCH  38  39
ENDBRANCH  34  38
ENDBRANCH  31  34
ENDBRANCH  29  30
ENDBRANCH  23  24
ENDBRANCH   1  23
TORSDOF 19
ENDMDL
MODEL 9
REMARK VINA RESULT:      -5.8      3.696      7.988
REMARK  Name = 
REMARK  20 active torsions:
REMARK  status: ('A' for Active; 'I' for Inactive)
REMARK    1  A    between atoms: C_1  and  C_2
REMARK    2  A    between atoms: C_2  and  C_3
REMARK    3  A    between atoms: C_7  and  O_8
REMARK    4  A    between atoms: C_7  and  C_20
REMARK    5  A    between atoms: O_8  and  C_9
REMARK    6  A    between atoms: C_9  and  C_11
REMARK    7  A    between atoms: C_11  and  O_12
REMARK    8  A    between atoms: O_12  and  C_13
REMARK    9  A    between atoms: C_18  and  O_19
REMARK   10  A    between atoms: C_20  and  O_22
REMARK   11  A    between atoms: O_22  and  C_23
REMARK   12  A    between atoms: C_28  and  N_29
REMARK   13  A    between atoms: C_30  and  C_32
REMARK   14  A    between atoms: C_32  and  N_33
REMARK   15  A    between atoms: C_32  and  C_34
REMARK   16  A    between atoms: C_34  and  C_35
REMARK   17  A    between atoms: C_35  and  O_36
REMARK   18  A    between atoms: O_36  and  C_37
REMARK   19  A    between atoms: C_37  and  C_38
REMARK   20  A    between atoms: C_38  and  O_39
REMARK                            x       y       z     vdW  Elec       q    Type
REMARK                         _______ _______ _______ _____ _____    ______ ____
ROOT
ATOM      1  C   UNL     1     114.037  76.233  85.673  0.00  0.00    +0.000 C 
ATOM      2  O   UNL     1     113.740  75.759  86.762  0.00  0.00    +0.000 OA
ENDROOT
BRANCH   1   7
ATOM      3  C   UNL     1     112.104  76.494  83.933  0.00  0.00    +0.000 C 
ATOM      4  C   UNL     1     112.033  76.337  82.408  0.00  0.00    +0.000 C 
ATOM      5  C   UNL     1     113.487  76.334  81.935  0.00  0.00    +0.000 C 
ATOM      6  C   UNL     1     114.351  76.349  83.202  0.00  0.00    +0.000 C 
ATOM      7  C   UNL     1     113.437  75.788  84.310  0.00  0.00    +0.000 C 
BRANCH   3   9
ATOM      8  C   UNL     1     111.002  74.597  85.215  0.00  0.00    +0.000 C 
ATOM      9  C   UNL     1     110.847  76.013  84.661  0.00  0.00    +0.000 C 
ENDBRANCH   3   9
BRANCH   7  10
ATOM     10  O   UNL     1     113.425  74.379  83.988  0.00  0.00    +0.000 OA
BRANCH  10  11
ATOM     11  C   UNL     1     114.540  73.615  83.952  0.00  0.00    +0.000 C 
ATOM     12  O   UNL     1     115.486  73.690  84.722  0.00  0.00    +0.000 OA
BRANCH  11  13
ATOM     13  C   UNL     1     114.408  72.576  82.827  0.00  0.00    +0.000 C 
BRANCH  13  14
ATOM     14  O   UNL     1     114.570  72.995  81.477  0.00  0.00    +0.000 OA
BRANCH  14  15
ATOM     15  C   UNL     1     113.565  72.554  80.547  0.00  0.00    +0.000 C 
ATOM     16  C   UNL     1     112.152  72.920  81.023  0.00  0.00    +0.000 C 
ATOM     17  C   UNL     1     111.088  72.632  79.970  0.00  0.00    +0.000 C 
ATOM     18  C   UNL     1     111.397  73.332  78.653  0.00  0.00    +0.000 C 
ATOM     19  C   UNL     1     112.776  72.944  78.141  0.00  0.00    +0.000 C 
ATOM     20  C   UNL     1     113.864  73.220  79.175  0.00  0.00    +0.000 C 
BRANCH  20  21
ATOM     21  O   UNL     1     115.111  72.768  78.632  0.00  0.00    +0.000 OA
ATOM     22  H   UNL     1     115.161  73.064  77.707  0.00  0.00    +0.000 HD
ENDBRANCH  20  21
ENDBRANCH  14  15
ENDBRANCH  13  14
ENDBRANCH  11  13
ENDBRANCH  10  11
ENDBRANCH   7  10
ENDBRANCH   1   7
BRANCH   1  23
ATOM     23  O   UNL     1     114.999  77.189  85.503  0.00  0.00    +0.000 OA
BRANCH  23  24
ATOM     24  C   UNL     1     116.115  77.161  86.424  0.00  0.00    +0.000 C 
ATOM     25  C   UNL     1     115.964  78.385  87.329  0.00  0.00    +0.000 C 
ATOM     26  C   UNL     1     117.200  78.610  88.176  0.00  0.00    +0.000 C 
ATOM     27  O   UNL     1     118.345  78.746  87.343  0.00  0.00    +0.000 OA
ATOM     28  C   UNL     1     118.607  77.565  86.589  0.00  0.00    +0.000 C 
ATOM     29  C   UNL     1     117.445  77.215  85.637  0.00  0.00    +0.000 C 
BRANCH  29  30
ATOM     30  N   UNL     1     117.734  75.947  84.943  0.00  0.00    +0.000 N 
ATOM     31  C   UNL     1     118.087  75.904  83.607  0.00  0.00    +0.000 C 
ATOM     32  O   UNL     1     118.053  76.901  82.875  0.00  0.00    +0.000 OA
ATOM     33  H   UNL     1     117.850  75.108  85.494  0.00  0.00    +0.000 HD
BRANCH  31  34
ATOM     34  C   UNL     1     118.606  74.547  83.108  0.00  0.00    +0.000 C 
BRANCH  34  35
ATOM     35  N   UNL     1     118.570  73.570  84.219  0.00  0.00    +0.000 NA
ATOM     36  H   UNL     1     118.575  72.628  83.810  0.00  0.00    +0.000 HD
ATOM     37  H   UNL     1     117.658  73.636  84.677  0.00  0.00    +0.000 HD
ENDBRANCH  34  35
BRANCH  34  38
ATOM     38  C   UNL     1     117.711  74.031  81.972  0.00  0.00    +0.000 C 
BRANCH  38  39
ATOM     39  C   UNL     1     118.240  74.400  80.587  0.00  0.00    +0.000 C 
BRANCH  39  40
ATOM     40  O   UNL     1     117.190  74.599  79.633  0.00  0.00    +0.000 OA
BRANCH  40  41
ATOM     41  C   UNL     1     116.517  75.858  79.820  0.00  0.00    +0.000 C 
BRANCH  41  42
ATOM     42  C   UNL     1     117.476  76.991  79.478  0.00  0.00    +0.000 C 
BRANCH  42  43
ATOM     43  O   UNL     1     116.742  78.160  79.119  0.00  0.00    +0.000 OA
ATOM     44  H   UNL     1     117.401  78.771  78.744  0.00  0.00    +0.000 HD
ENDBRANCH  42  43
ENDBRANCH  41  42
ENDBRANCH  40  41
ENDBRANCH  39  40
ENDBRANCH  38  39
ENDBRANCH  34  38
ENDBRANCH  31  34
ENDBRANCH  29  30
ENDBRANCH  23  24
ENDBRANCH   1  23
TORSDOF 19
ENDMDL
